201

C           -2.27271615791521        3.39064124294549       -2.59195286879160
H            2.48241993834455        1.62676978732601       -0.04792209437701
C           -4.19606599102405       -3.92695771386590        1.04750323985804
C            5.07527312490571       -0.26825886076358       -1.07301816689408
C           -4.91873537479922        3.16081197623786        0.94603050690208
C            3.06016215334976       -1.57804464119750        2.97910253322514
C           -5.47694936903955        1.77506864227973        0.63535177523283
C            0.67817211316107        4.68930088199657        1.81407889995800
C            4.11360731756801        3.78875266498839        0.80304911434824
C           -2.12401523495876        4.74688003672871       -1.93116512333975
C           -1.66797967379885       -6.30290038435784       -0.23558704243734
C            3.55266651282945        1.55863259010238       -0.27530622512528
C           -3.58831760066317       -4.94678334485773       -0.91884242336041
C            2.49598221741084       -2.99514262269087        2.97526405454946
C            2.72525773497354       -4.78072455726117        1.18699398117628
C           -0.68156748383662        4.93235856036584       -1.47111956602903
C            5.28430666692166       -0.75787714616429        2.09703800583729
C            2.02318494648892        4.08621333036129        2.21478093499285
C            4.85414525762866        1.62507337069838        1.65685566632218
N            1.11800369284002        5.69401297660514        0.85869777325787
C            2.25268129489958        5.23510094017299        0.24205902205219
N            4.69792402119866        0.31044434325278        1.32997403128781
N           -0.38950925982686       -5.65364017035962       -0.32362974152101
C            4.21620504088073       -2.84457531677882        1.46051374990647
O           -7.23803114332337       -1.43354414386542        0.06482481000763
N           -4.77369533289440        3.69955121142178       -0.39084799120179
N            4.36375083834066       -1.81663882440954        2.37552191564843
N           -5.51953085246074       -2.09407320942438       -1.31746912800486
O           -5.98575414370588        3.48230711459435       -2.33637909914666
N           -0.84737587517657        6.01853725541381       -0.51762301583730
N            4.31272176859263        2.37762052483640        0.64837078271907
O           -2.47594838689827        6.48321960622321        1.05079599510113
O           -3.63936308449163       -5.35070540008737       -2.06449558111440
N           -4.35984457070348       -3.94455140251313       -0.39014784599471
O            2.77498699292998        5.71631257142403       -0.74383261117093
N           -6.43180971028425       -0.08431375959817       -1.62628638448451
O            0.37567744260533       -6.30294615792932        1.75552033948229
N            2.73141390996855        4.15210837084361        0.94797696775517
N           -6.29453174561877        2.07709455958922       -0.53070805892585
N           -2.77568803769248       -5.44107311167490        0.07445738041114
N            3.04819204008323       -3.49468647652168        1.73168877478606
N            1.48605552316285       -4.75033405183829        0.46840583598262
N           -2.84012968863423        5.03895061159532       -0.70608885780258
O            5.40114081373375        2.05104814012952        2.65368256517885
O            5.01140902811108       -3.13180119678494        0.58617839636260
C            4.09117164696530        0.14655110346846        0.03356355622392
C           -4.99024682263456       -1.59624447599425       -2.56930577339648
C           -5.12653871678362        0.57449893201026       -3.75582666581612
C            0.21935225153991        5.08893618276845       -2.68037659783690
C            0.24178253514337        6.62205434515799        0.19824392141016
C            0.47230626757185       -5.63328155163974        0.74470658768027
C           -6.47005772805337       -1.22147709517352       -0.85378737769355
C           -7.11157718656613        1.11387820420476       -1.21550423198185
C           -3.54801795189023       -1.86807006367517       -2.94780393682506
C           -2.09312693831424        5.89962768232374        0.05537638726689
C           -2.79082812249178       -4.50417239763983        1.18723777388593
C           -5.56557003614269       -3.49617873009707       -1.02185145322069
C           -4.27245610296679        5.01918344878364       -0.63632153168138
C           -5.70667965320372        3.11775057241216       -1.21022053931414
C           -5.19807788564594       -0.09484412716291       -2.39717554347835
C           -0.09435479930754        5.10047877069425        3.05118277723771
C           -3.33786549335914       -1.18000132014261       -4.30220266864650
C            0.99518288469644       -2.94422558405864        3.17997283684564
C            2.95882726270380       -0.98620460714164        4.37011129996641
C            1.40007436635304       -4.35572381653350       -0.92394524436899
C           -2.59119926333456       -4.98425157881543        2.61146895344567
C           -3.70852478175420        3.03256487502373        1.84934411843582
C           -0.09903131066855       -4.50349706357565       -1.16854792992028
C            0.96629249746758        3.05949420484313        4.15647264657018
C            1.85170221419015       -2.97463143946702       -1.35451378863016
C           -1.34018597096343        3.40967254168639       -3.81065339313426
C           -4.28239431748201       -2.61730722832787        1.80575600974199
C           -3.70383510283170        0.30920619424867       -4.26774919084460
C            0.10624710899571        3.76308759442940       -3.44413623857293
C           -0.33429003070272        3.80462596082005        3.83594345238816
C            0.78350109131740       -2.31128738694534        4.56137393531220
C            1.56969978116127       -2.88379155173118       -2.85901587495951
C            1.79289923458912        2.75282063517674        2.90098093243256
C            1.45818123862038       -0.94067403553645        4.68720808461485
C           -0.36459548247954       -4.54784881490178       -2.66004903498976
C           -4.21585524866148        2.38405863254600        3.14360768598721
C           -6.09904344369592        1.18924381503598        1.88712709792456
C           -4.03213475153764       -2.97169477428686        3.27683744597783
C            0.10674880287349       -3.19040566607022       -3.20127249139074
C           -2.71265689767006       -3.72656235203792        3.48296623571782
C           -4.94655328399594        1.05903057748561        2.89234104063621
H           -3.30374715649773        3.22325841403314       -2.90508923810771
H           -1.98308868427981        2.60213196381915       -1.89717710250736
H           -4.93175891027208       -4.62693720591935        1.48654175724797
C            6.47923403077164        0.32237383281360       -0.95893369612734
H           -5.68263725001936        3.75893114914722        1.47786298042334
H            2.45993612014810       -0.95068057627549        2.30462656275489
H           -4.64935555405685        1.11620655262389        0.33453029502229
H            0.08728270272447        3.92344436769795        1.28942161267112
H            4.70104604780311        4.07827777564212        1.68657470620138
H            4.47706013526819        4.32534667907508       -0.08310175647437
H           -2.38117031698768        5.52306918684101       -2.67584487101480
H           -1.56751110649254       -7.06292023460146        0.54789234544019
H           -1.90805705704934       -6.77044286186697       -1.19731323054715
C            3.78953591886875        1.89692527066420       -1.74717100546610
H            2.93878973736971       -3.57505396146609        3.80590300094219
H            2.61098546547787       -5.51940167996901        1.99252842275722
H            3.55326615847483       -5.06231333344591        0.52128333480143
H           -0.36283737535044        4.02729943900478       -0.93169857827897
H            5.63636433405671       -0.30383966883495        3.02950968903820
H            6.12406805802067       -1.22305854771398        1.56283102756645
H            2.53430696950396        4.75586586908714        2.93122044515135
H            3.27623411788836       -0.58265384459452        0.06882780673760
H           -5.63494359551971       -1.96912823247044       -3.38731218607689
H           -5.30949271623443        1.64704313129789       -3.67942771521271
H           -5.86912880417076        0.14485677782631       -4.43166696838388
H            1.25306167909764        5.27206410547762       -2.38554096507286
H           -0.11648391846317        5.92215158985073       -3.30135232575652
H           -0.20969086288429        7.28999951407758        0.93989074798918
H            0.86857317919211        7.18763279904096       -0.50047079658531
H           -7.92526182516269        0.79099374731718       -0.55639774822928
H           -7.51068286324455        1.62658812511064       -2.09806644882384
H           -3.35954356230455       -2.93868667924041       -3.03143593936972
H           -2.87801779182535       -1.45147380313537       -2.19557530787334
H           -2.05611069592952       -3.70805886257956        0.99639401871172
H           -6.42398474108939       -3.66010374433199       -0.35566725940948
H           -5.68103977879956       -4.07345421065178       -1.94999068679793
H           -4.56275003487816        5.69797224621995        0.17798101640991
H           -4.70576356865684        5.35469082825527       -1.58957545369459
H           -4.38327041293143        0.31158233504043       -1.77838543996434
H           -1.04392760511837        5.56563899756785        2.78318390111425
H            0.48536555049755        5.81106741628088        3.64458210131667
H           -2.29383675536858       -1.27897326553116       -4.60247886441958
H           -3.95056893501087       -1.68701824916114       -5.05263660784248
H            0.53108699775057       -2.33519774808416        2.40486109119456
H            0.56173939237066       -3.94417697959143        3.14805942169721
H            3.38169382078976        0.01864926915464        4.40313314849910
H            3.48994078446472       -1.61001630245216        5.09217364550111
H            1.95093387340016       -5.10081831655799       -1.52816904247049
H           -1.61108166554999       -5.44455195359320        2.74125226742950
H           -3.35517529982917       -5.71763602750351        2.87840768761867
H           -3.27194111857058        4.00999337995554        2.05876887478459
H           -2.95268452586327        2.40509099595214        1.37934884707034
H           -0.61500848871380       -3.62054896925328       -0.76320037966024
H            0.72226849117198        2.12669924937473        4.66620039169008
H            1.57234259559142        3.66385519500500        4.83724340114182
H            2.91632187110710       -2.83405686188853       -1.16350465447254
H            1.29216104544891       -2.20913624665258       -0.81865194990737
H           -1.34955918822573        2.43254475134790       -4.29517316488850
H           -1.71799525043656        4.14169838425062       -4.52975645629898
H           -5.26388988520967       -2.15760923111793        1.68539909291253
H           -3.52383567255600       -1.92474335133052        1.44133729094223
H           -3.59053887082886        0.73100583643516       -5.26853053119206
H           -3.00159727303551        0.81762448984845       -3.60669096096186
H            0.70698221163740        3.80933795493534       -4.35464104779533
H            0.50854850736853        2.96394121497592       -2.81826349224935
H           -0.85911287691392        4.02992238628582        4.76640449115617
H           -0.97151722311417        3.14895404774800        3.24066819727723
H            1.18559138744816       -2.98479759576497        5.32342062244108
H           -0.28374521336892       -2.19362889891784        4.75137060358330
H            2.22068781326159       -3.58941417891775       -3.38268398579161
H            1.81507055430385       -1.88063254469410       -3.20893850022762
H            2.73853325662458        2.28673613802326        3.18061388589996
H            1.24654062067435        2.07554133941021        2.24503212084599
H            0.97563906165223       -0.25480727262491        3.98911780096922
H            1.30723912530357       -0.55708758091367        5.69845548059548
H           -1.42491696020841       -4.69481609675669       -2.86858624551915
H            0.19459195343845       -5.36415256899371       -3.12295830659235
H           -3.37274226404781        2.19775550914032        3.81018557036646
H           -4.89247822934616        3.08157966464240        3.64557135585488
H           -6.54279322636902        0.21309316582158        1.68797375501002
H           -6.87733937010142        1.85143364682034        2.27313894657656
H           -4.01269286215357       -2.05845964158117        3.87356281959532
H           -4.86162355202493       -3.58686949430887        3.63631764902855
H           -0.51817811554716       -2.40678656812065       -2.77178756286360
H           -0.02028181081397       -3.16529102007507       -4.28527628400628
H           -2.61399293306015       -3.99868609713472        4.53593865268387
H           -1.89200573923626       -3.05519413953108        3.22885911779375
H           -4.22648637695754        0.33812194616738        2.50341247277456
H           -5.32895898678627        0.67463305754931        3.84022791476991
H            5.12572518076810       -1.35516866706580       -1.14025772787816
H            2.89782856998446        2.27973050359455       -2.23598914014292
S            4.26135576401637        0.34658867450618       -2.58045756379753
H            4.59689992552922        2.61973699123487       -1.86530306712619
H            6.84348289647274        0.24123104087468        0.06609581958967
H            6.44512257214604        1.38508616829260       -1.20529943399496
C            7.45123117964441       -0.39281012153739       -1.89748428277660
H            8.32221041070642        0.24361215207220       -2.07030313065438
H            6.95587205111646       -0.54831548007079       -2.85914929436198
C            7.91651371695798       -1.73272828577725       -1.32764934144377
C            8.64237780256743       -2.57548949590920       -2.38376897168474
H            7.06465115206093       -2.30413255711662       -0.95651345280390
H            8.59569655977720       -1.55579857056337       -0.49102304450129
H            8.93367826663552       -3.52924836874137       -1.94110744642664
C            9.88787252147765       -1.87351359234043       -2.85102656396611
H            7.99288036283749       -2.75146053731405       -3.24056227628336
O            9.80807436392110       -1.50930647744307       -4.14006456744600
O           10.86098235518319       -1.63952158741200       -2.18427255149071
H           10.61072159641778       -1.03560857347711       -4.40969407920082
F           -2.32836105710016        0.34993681695784       -0.05192361954533
F           -1.02855334325535       -1.46672661740004        0.48657332827187
F           -0.40621021718377       -0.06891345588275       -1.22632468207684
P           -0.77001297212562        0.12880794082569        0.33679130811413
F           -1.12515731226056        0.33134440771367        1.90682061928997
F           -0.49743642344163        1.72583102580077        0.19848854377130
F            0.79626604690602       -0.09399522426058        0.73057483248675
