259

Cl           5.14704955190005        7.37923572795499       -0.00062693034905
O            0.43467057390739        8.86685069334888       -1.07048114879914
O            1.45977068502315        3.47016305787219       -3.58828711326172
O            1.33940369249050        4.52768622688291        2.32676276919649
O            0.99936896327677        9.89828247854196        5.03649919721286
O            5.87557948065484        6.32445853986260        5.01474761182029
O            6.24826310964823        1.15813054951968        2.01380771058318
N            1.88013917745636        7.63006372969036       -2.36100610543356
N            1.06808356532367        6.73433908198781       -0.50652943606958
N            2.52874181862987        5.47888859041399       -3.25517797376006
N            1.38180919625145        4.58379420188137       -1.57865639388904
N            1.20637176761193        6.77867841634606        1.89228872222355
N            2.62456019432856        6.06740828161775        3.44309419047924
N            1.12078077531294        8.95555232638720        2.94297185895973
N            2.48643765686866        8.22326930367454        4.52531209105333
N            4.76906585931975        4.98483415404821        3.51260457775871
N            6.91504283695093        5.42623080300937        3.17801050238519
N            4.87767781514405        3.00029555949799        2.14673709197107
N            7.06943579356055        3.30569763580298        2.01906846597265
C            1.07052569903700        7.85039429659306       -1.28615990365131
C            1.76082895442125        4.40897396960696       -2.87706087527175
C            2.67977865107727        6.42408042579094       -2.19316368699234
H            3.72779592088545        6.70021238226829       -2.02355445466868
C            1.99653774486584        5.73825052544175       -0.98442270375770
H            2.68701969495987        5.44934580361416       -0.17654861887490
C            1.69458537250651        5.67618461534519        2.52629474555026
C            1.48334170960861        9.10489912724650        4.25094409589732
C            1.92352761999572        7.98141703839757        2.26539991678738
H            2.41765624200874        8.41412618197295        1.38218169578125
C            2.89641947154999        7.48733346961880        3.36625968337519
H            3.96050796117772        7.65818216237532        3.14662333190126
C            5.85305582340664        5.65309565299844        3.99791214849203
C            6.08332442209912        2.36210890657416        2.05764584497827
C            5.02385953383967        4.42183896472986        2.19632578742954
H            4.40597861531964        4.92986058089821        1.44139910351790
C            6.54794083498026        4.64343758088229        2.02019199720023
H            6.82319595886838        5.18270328090860        1.10102233505014
C            3.31767129494639        5.43974662498214       -4.47117554515823
H            3.63832098949361        6.45714407506422       -4.70844585474625
H            2.65736919607989        5.08550213539584       -5.26733170584500
C            4.52347452027598        4.53255025691998       -4.39035313511570
C            5.31595830748705        4.46225860860145       -3.25087477101775
H            5.06284597754808        5.04481885336477       -2.37481978818381
C            6.42796760699656        3.63733052355119       -3.21125076863176
H            7.02279428897011        3.58844975658127       -2.31009391327888
C            6.76778673461298        2.87280309746957       -4.31298283202613
H            7.63548358711853        2.23269922230637       -4.28083372047356
C            5.98721039998445        2.93847591350677       -5.45449222456843
H            6.24516588308940        2.34397421441454       -6.31764659209318
C            4.87370090129513        3.75880913666538       -5.49050160977752
H            4.26369268308290        3.80135058124118       -6.38016723702894
C            0.63299404408085        3.58651508142749       -0.84372995326648
H            1.06692673599863        3.48557531694008        0.15432724381524
H            0.76728201805118        2.64390152252705       -1.38624699990282
C           -0.83723071974238        3.91177579301694       -0.74635867004608
C           -1.52297232772729        3.69450014665350        0.44325390383731
H           -0.98894671013036        3.30228046730977        1.29697132408098
C           -2.87305829211331        3.98774429689390        0.53657951668079
H           -3.39484869607029        3.81696762013417        1.46631047008410
C           -3.54888681343927        4.50373422527448       -0.55614149593985
H           -4.60063347437037        4.73641661093367       -0.48256367298550
C           -2.87151764258814        4.72022426920729       -1.74465751266365
H           -3.39351413984230        5.11834915988110       -2.60219077410301
C           -1.52362461035278        4.42181436187363       -1.84093852481213
H           -0.99507446625794        4.57789589208862       -2.76998032263556
C            0.12101042065887        9.78810739007797        2.30307584951138
H            0.42712481090376        9.96388813318371        1.26866307555945
H            0.11759892972022       10.73781884498771        2.84951177116800
C           -1.26407140259846        9.18716418705862        2.33932057961239
C           -1.78343052505549        8.69011359418537        3.52815843273257
H           -1.19220024946598        8.75388011978353        4.42902688941507
C           -3.04991168638304        8.13398396185461        3.56094122603793
H           -3.44126474639692        7.74901007489945        4.49098811062246
C           -3.81495797457579        8.07729502360259        2.40753700024647
H           -4.80307021807886        7.64294390154137        2.43389483997467
C           -3.31054948792062        8.58483202639560        1.22262462764613
H           -3.90226544653005        8.54894683008381        0.32016238202943
C           -2.04043660767759        9.13591468945078        1.18746805555693
H           -1.64204922076350        9.52188974095372        0.26037565692766
C            3.16580140633791        8.18053645810457        5.80235498931419
H            3.01260644283284        9.16335392813539        6.26183478693718
H            4.23344715064877        8.03197541296072        5.62586840085281
C            2.63555469206782        7.10734737144612        6.72150433168860
C            1.27039234051806        6.87431325634817        6.82830968143665
H            0.58591732628474        7.46825429630085        6.24156600960971
C            0.79048183983992        5.89837489497449        7.68391921998300
H           -0.27314092085820        5.72594932331935        7.75672743682042
C            1.67056978672666        5.15032428460600        8.44843072361905
H            1.29581543559352        4.39093199760722        9.11841655487722
C            3.03260720993332        5.38095588281593        8.35175421324050
H            3.72443404489276        4.80154686655350        8.94501073091004
C            3.51404453214905        6.35243101918938        7.49015591564825
H            4.57695888838947        6.52427653734572        7.40110805099434
C            3.62483224305222        2.28071938521563        2.01035611366131
H            2.80880827267706        2.99176580940906        2.15892329640169
H            3.58062029941224        1.52069841331902        2.79621434855723
C            3.46881917181255        1.61769728405749        0.66403364930399
C            2.90549216642467        0.35175488429545        0.57451202488672
H            2.61139938391066       -0.16203644603152        1.47737845813361
C            2.72206940099520       -0.25171056441333       -0.65698349243048
H            2.28226692679265       -1.23620957135944       -0.71223503261961
C            3.10675620632215        0.40162924514495       -1.81536115234266
H            2.96589447574400       -0.06149173733999       -2.77992756873127
C            3.67514220418780        1.66107068340901       -1.73600512437321
H            3.97502371645681        2.17872948339752       -2.63467748864347
C            3.85046828780050        2.26575211326614       -0.50364204654881
H            4.29468553351886        3.25188618448852       -0.45154131990161
C            8.47195254138936        2.96945948991943        1.89075341355637
H            8.95169105238202        3.71284027076044        1.24897987397497
H            8.50760314247353        1.98860620907414        1.40267350969208
C            9.18838118225841        2.89268823706333        3.21783177872321
C           10.46445930927586        3.42736731996567        3.35286953876921
H           10.92703758261000        3.91390779759011        2.50640000804745
C           11.13322251227043        3.34787011959551        4.56286727645344
H           12.12431656159210        3.76687856139255        4.65506136849741
C           10.53101303108004        2.73791311867237        5.65023512245199
H           11.05045929786183        2.67822562057456        6.59494612953548
C            9.25977012538121        2.20284711070864        5.52167391648682
H            8.78558773456517        1.72232674338823        6.36458594255595
C            8.59339905734955        2.27559496758965        4.31097953233780
H            7.60850728054982        1.84501954578879        4.20574376321383
C            2.12008932404110        8.64910942610222       -3.34598669292293
H            1.29433575802832        9.36192904103555       -3.26345328826618
H            2.14222466053428        8.20623380690745       -4.34557943633437
C            0.35123401157279        6.66355067107942        0.74028507570655
H           -0.37434944751194        7.48004785384863        0.73316350631329
H           -0.15849573351107        5.70034347412364        0.82223767416802
C            3.47147858338767        5.12126245734683        4.12195745338892
H            3.64257826627124        5.45238983189735        5.14998450039428
H            2.94817898989868        4.16244074301356        4.10929209764762
O            9.85807810594845        5.89197181864238        1.07040722433785
O            8.83298440323991       11.28865777146553        3.58824826474443
O            8.95327580703558       10.23120354764891       -2.32677586806074
O            9.29330627497470        4.86058702247346       -5.03651632860178
O            4.41717039674404        8.43443009661138       -5.01483966819461
O            4.04441589615220       13.60071384169473       -2.01383711497842
N            8.41264771746014        7.12875460708199        2.36097349991768
N            9.22468880858677        8.02450634325862        0.50650278590406
N            7.76402276282840        9.27992675766697        3.25515071859833
N            8.91089645825796       10.17504628447268        1.57860420065232
N            9.08630813520315        7.98020544715743       -1.89232525339748
N            7.66816191179292        8.69148972362039       -3.44316206443621
N            9.17188693227307        5.80333663347389       -2.94299878458310
N            7.80625874476210        6.53562640482864       -4.52536207277362
N            5.52368056918688        9.77412036630222       -3.51274306261281
N            3.37774840737492        9.33258537959124       -3.17804855818281
N            5.41506125116350       11.75859442095152       -2.14679136335759
N            3.22331584006856       11.45312010595845       -2.01910112391420
C            9.22223335013165        6.90843002366643        1.28610065299010
C            8.53192222925708       10.34985082011077        2.87701971485044
C            7.61299267869362        8.33472444376335        2.19314391521105
H            6.56497499356868        8.05857067644361        2.02354551388655
C            8.29619844133681        9.02056160421636        0.98439143062332
H            7.60569966565240        9.30942606240512        0.17651953054595
C            8.59810081680222        9.08270257322059       -2.52632110424836
C            8.80933350793491        5.65398137592094       -4.25096913642420
C            8.36913383187202        6.77747866451473       -2.26544159373114
H            7.87496325325918        6.34479205919245       -1.38223835111005
C            7.39627143801672        7.27157212817218       -3.36631627792892
H            6.33218330862216        7.10074004446452       -3.14667280954666
C            4.43971554884795        9.10578446665819       -3.99799994765824
C            4.20939901786268       12.39674180085807       -2.05769103942893
C            5.26892127958562       10.33704906159909       -2.19643137274907
H            5.88685551402519        9.82901476996402       -1.44155976714542
C            3.74485292601245       10.11539542573523       -2.02024916074267
H            3.46964703160178        9.57611728624823       -1.10106997019567
C            6.97511542800080        9.31907974527709        4.47115953438278
H            6.65448625666576        8.30168609183468        4.70846755387198
H            7.63542043615100        9.67336401186574        5.26729536337665
C            5.76930011086087       10.22626236684232        4.39031529887581
C            4.97685183149350       10.29654429221130        3.25081058807039
H            5.23001502580147        9.71398562846967        2.37476833862290
C            3.86484349466391       11.12146910438591        3.21114061846689
H            3.27003953448954       11.17034766414711        2.30996883510502
C            3.52499576966348       11.88601113205025        4.31285483393351
H            2.65730409151244       12.52612029210439        4.28067204397680
C            4.30553827760904       11.82035321352389        5.45438805715779
H            4.04756221011895       12.41487648022787        6.31752127584276
C            5.41904384979183       11.00001545511181        5.49044468304091
H            6.02903247006678       10.95748941020084        6.38012424429282
C            9.65971159712019       11.17232230224178        0.84367655227218
H            9.22577894722364       11.27325944501657       -0.15438050459860
H            9.52542227902828       12.11493564488030        1.38619358836903
C           11.12993723395970       10.84706752467210        0.74629785528873
C           11.81566926636833       11.06436661146902       -0.44331610430515
H           11.28163324039422       11.45660061423819       -1.29702034181346
C           13.16575423120892       10.77112608992272       -0.53665911365313
H           13.68753580223085       10.94192088011389       -1.46639156460123
C           13.84159223358026       10.25511742834816        0.55604734044351
H           14.89333820607208       10.02243628798520        0.48245576063391
C           13.16423404218915       10.03860870178857        1.74456597962399
H           13.68623954143531        9.64047018992990        2.60208741356746
C           11.81634087723476       10.33701389783745        1.84086400248015
H           11.28780075565903       10.18091318540556        2.76990823349840
C           10.17163342127294        4.97076358192710       -2.30308845767576
H            9.86551431681555        4.79501407987691       -1.26867192883975
H           10.17501814062769        4.02104102496771       -2.84950548820852
C           11.55673252478232        5.57166935569632       -2.33934403196819
C           12.07610864647002        6.06868521184232       -3.52818907392682
H           11.48488209410768        6.00491268608272       -4.42905940368043
C           13.34260099875812        6.62478989199462       -3.56097481662390
H           13.73396655085831        7.00973841680838       -4.49102695981733
C           14.10764215296246        6.68148787004465       -2.40756766329890
H           15.09576165225806        7.11582239010135       -2.43392787476149
C           13.60321783867475        6.17398299433658       -1.22264849992820
H           14.19492720707787        6.20987634592480       -0.32018232304461
C           12.33309439277924        5.62292492448273       -1.18748907971168
H           11.93469105579463        5.23697974326374       -0.26039149577084
C            7.12689833986408        6.57834120859766       -5.80240727745734
H            7.28009630563704        5.59551777865102       -6.26187393252750
H            6.05925215703296        6.72690382401102       -5.62592529374789
C            7.65714825812935        7.65152045895303       -6.72156650484641
C            9.02231553518330        7.88451272874333       -6.82840682393328
H            9.70678466885294        7.29054023635133       -6.24168782507435
C            9.50223337693331        8.86044864337191       -7.68401459134912
H           10.56585965734219        9.03284163374019       -7.75684926686110
C            8.62214769219184        9.60853925806334       -8.44849021724627
H            8.99690682166964       10.36793200433074       -9.11847286493463
C            7.26010591193324        9.37794782357308       -8.35178132289268
H            6.56828077110844        9.95738792261900       -8.94500972796627
C            6.77866124895602        8.40647402707594       -7.49018493508025
H            5.71574367719130        8.23466153439066       -7.40111004502567
C            6.66789001776738       12.47820611367447       -2.01044115075590
H            7.48392807855399       11.76718104403875       -2.15903324061297
H            6.71206072690270       13.23823575370111       -2.79629282625294
C            6.82391105778755       13.14121325499172       -0.66411308520552
C            7.38719994071550       14.40717107237508       -0.57457676541767
H            7.68126382951170       14.92099093431610       -1.47743641073703
C            7.57062107435739       15.01061949297272        0.65692780037021
H            8.01039105031073       15.99513270637247        0.71218970971237
C            7.18597168617916       14.35724741030435        1.81529945123410
H            7.32683233487356       14.82035598310354        2.77987188085099
C            6.61762465828431       13.09778923934697        1.73592884004110
H            6.31777748868954       12.58010215277853        2.63459649263187
C            6.44229998547315       12.49312574832017        0.50355699791074
H            5.99812195617748       11.50697488500040        0.45144053999743
C            1.82078996362302       11.78932906664303       -1.89079907793394
H            1.34105687599802       11.04592736741333       -1.24904662760462
H            1.78511861554626       12.77017236587200       -1.40270141302962
C            1.10436700942109       11.86611230203441       -3.21788028234218
C           -0.17169641487876       11.33140204261644       -3.35293116074958
H           -0.63426998609866       10.84483541173438       -2.50647316013916
C           -0.84045805417574       11.41090121186368       -4.56292937153948
H           -1.83154127732411       10.99186701841494       -4.65513238577132
C           -0.23826324511354       12.02089118110508       -5.65028614785217
H           -0.75771356399436       12.08058384176648       -6.59499503092842
C            1.03296196783730       12.55599376894784       -5.52171001723554
H            1.50712987318711       13.03655300851596       -6.36461086991265
C            1.69933240635655       12.48324326007487       -4.31101502266958
H            2.68421107521624       12.91384360854008       -4.20576972057147
C            8.17270773699756        6.10970357971400        3.34594702603966
H            8.99845406059095        5.39687725413500        3.26340278069102
H            8.15058237858558        6.55257155237849        4.34554338411107
C            9.94147713660347        8.09530939987519       -0.74034198680449
H           10.66706162300004        7.27881230343712       -0.73326443752149
H           10.45120442338735        9.05851846518118       -0.82229902235731
C            6.82128364167541        9.63764613433817       -4.12205629311874
H            6.65020429768725        9.30651318495775       -5.15008460212205
H            7.34460334155453       10.59645693531171       -4.10938283433952
