110

N            2.51483109209866        2.51650396189255       -1.52221038283963
C            3.83586091466552        2.98492343389319       -1.88467178577240
H            4.20133024753416        3.56177002141752       -1.02968964579420
H            3.83276349789012        3.65283683756572       -2.76450798733068
C            4.86537906231303        1.87609226390092       -2.17545639296289
H            4.72845806591458        1.47405126122140       -3.17967006043945
H            5.85682353578274        2.34069423594166       -2.11902918617103
N            4.81805023256502        0.75453750831620       -1.27515856650469
H            4.47003175524079       -0.11882407199687       -1.66006252608465
C            5.20169936490197        0.76692699188168        0.00788762547304
S            5.90558455919221        2.10539684552389        0.71314793324410
N            5.00297539261685       -0.37995622290511        0.68498441197326
H            4.62010407710602       -1.16450400955648        0.17594782627776
C            5.32987457421913       -0.61109684042189        2.06793654880987
H            5.57729617066975        0.36005476092499        2.50366933307510
H            6.21413440033043       -1.25826325510559        2.13619947218503
C            4.16332472673119       -1.26221298104275        2.80988117657583
H            3.85799004993209       -2.16541610628122        2.27770589260968
H            4.50484319577637       -1.56290821510387        3.80102661596092
C            2.96926114069991       -0.32100093390127        2.94297614329881
H            3.24199500014844        0.52282510467296        3.57857718467756
H            2.68836505530882        0.07058137682730        1.96358802291714
C            1.60296989979725        3.56206660717081       -1.12776118120819
H            0.83042938535302        3.11394036690006       -0.49356221234187
H            2.16531948351472        4.26653322606887       -0.51180846342923
C            0.88842980799037        4.34463800510891       -2.25958138921121
H            0.74108875418341        5.38041983274873       -1.94668519732900
H            1.49922794889817        4.33546851824862       -3.16544500795417
N           -0.41969653574630        3.81607612022190       -2.55623497985737
H           -0.47695503573532        2.87535805450416       -2.93578348726909
C           -1.56427139193299        4.35124099015135       -2.09725520632528
S           -1.60532886482447        5.83575242239796       -1.33049178211547
N           -2.68775894803733        3.65246251066552       -2.35526994655386
H           -2.57761480547515        2.73714339408699       -2.77374032205220
C           -3.96983271945321        3.94405772861587       -1.76547770985953
H           -3.90471010906777        4.95428757973033       -1.35439511259026
H           -4.73489395933608        3.92609079472382       -2.54712674275692
C           -4.33664940285343        2.94963634138731       -0.65716546032565
H           -5.25526334800696        3.29063282428129       -0.17807610358920
H           -4.52188648341230        1.96860863765769       -1.10064132803812
C           -3.21543778178788        2.83668755592533        0.37369749714479
H           -2.90469109228546        3.83188499753701        0.69431062773475
H           -2.35597014698815        2.34466670656460       -0.08589518099650
C            1.94646145570315        1.43130631826327       -2.26956799111755
H            0.94495480919249        1.24788593477177       -1.87140236660157
H            2.53508006820786        0.53113630079325       -2.06906528548486
C            1.83783920839780        1.53900428954298       -3.81218799358031
H            1.05243550867440        2.22599267234943       -4.12921254571931
H            2.78368765496874        1.85720330156995       -4.25077703391756
N            1.52893973788899        0.22674175382672       -4.33277980365982
H            2.31873326792702       -0.41682925839804       -4.30611842797509
C            0.32980133536335       -0.34887920621486       -4.11701730187452
S           -1.04180248434737        0.55545884509361       -3.81851007489443
N            0.28677767227456       -1.68715555806389       -4.25393575896625
H            1.18342561094365       -2.15880865610329       -4.22944821300461
C           -0.85883343932917       -2.49871201959557       -3.92522012323501
H           -0.77520922336424       -3.43303508073695       -4.48552382469635
H           -1.75539618426851       -1.96547129691393       -4.25150506714373
C           -0.94763546511854       -2.78551883773908       -2.42009932862095
H            0.02924872605697       -3.11909730722442       -2.06290748222714
H           -1.18846434189529       -1.85319747455746       -1.90834696084561
C           -2.00750564658401       -3.84169559840187       -2.12254830279288
H           -1.64923868993196       -4.82498903523817       -2.43136432185503
H           -2.91255347238562       -3.61473590140122       -2.68803996224296
C            1.75093141110994       -1.04097887672600        3.55692359770485
H            2.08288345133486       -1.63521609380088        4.41667583550874
C            0.73387339777151       -0.03986444244295        3.99836896780577
N           -0.28236852487635        0.35916347870596        3.30923098845148
C           -0.92858319657928        1.28307729183684        4.10304160342791
C           -0.23424433200931        1.39974030944803        5.27825618936814
O            0.82701829942118        0.55423408914696        5.20448590874276
C           -0.44647322314588        2.23172150966915        6.48155911021133
H            0.39628078110817        2.90596944115609        6.62690933756920
H           -0.53541630147165        1.60174597867978        7.36496157287281
H           -1.35801070139593        2.80593304623626        6.34415933864960
C           -2.17157796688393        1.93608047892148        3.64706446394063
N           -2.41950677775580        1.66089532332775        2.35465610810194
H           -1.78926671093514        1.01067427805099        1.90280965885596
O           -2.87558288118698        2.63772526999935        4.36076369925465
C           -3.60879032732053        2.01889925614982        1.61705897422185
H           -4.26200773049542        2.59789330863752        2.27668948737115
C           -4.29606205608372        0.75075086962927        1.22156184092914
N           -3.70026477580492       -0.30428197569711        0.77624944252676
C           -4.69660094150925       -1.22968431708730        0.56058212271671
C           -5.89503986541972       -0.65869257462972        0.90200243988520
O           -5.63164520355149        0.60524408782130        1.32373759584734
C           -7.28368786898604       -1.16530993249167        0.87369126940975
H           -7.88306602653187       -0.58704892022791        0.17200252965578
H           -7.73586350533876       -1.07817194777871        1.86007017028740
H           -7.26245435441096       -2.20652701539550        0.56555047348098
C           -4.36684140600055       -2.57734628595827        0.06558688920172
N           -3.05675619753006       -2.68372598098251       -0.21932737108744
H           -2.47343719035086       -1.88963852476695        0.00759295858931
O           -5.18447146605150       -3.47828379439605       -0.07297088182159
C           -2.40713534064493       -3.90013842451830       -0.63367620303460
H           -3.13020934937106       -4.71585853446052       -0.50409354313652
C           -1.23847935849101       -4.14256931998177        0.26679992041813
N           -0.62187791804543       -3.25297413570868        0.97204439633541
C            0.32650261990712       -3.94581386047901        1.69318568732850
C            0.23106105074612       -5.27380415949880        1.36533881389344
O           -0.76676009296684       -5.39236525973318        0.45250190913760
C            0.98179255265984       -6.46868853560174        1.80735207748382
H            1.64885915364853       -6.17639445967230        2.61308235362889
H            1.56312020321048       -6.87639731682317        0.98101908517785
H            0.29375533636157       -7.23813224194228        2.15228486113296
C            1.19824136733643       -3.27976652143705        2.67909261058371
N            1.12649858315092       -1.93837926159151        2.61362010706975
H            0.46247171591281       -1.53451715770987        1.96699754403404
O            1.90551020323427       -3.89405019523011        3.46888044582274
Br           3.84788391034490       -2.05155692756332       -3.18189569411485
