139

O           14.60480751582458        5.27233171472371       -0.96679546337216
O           11.17132548855073        8.41820075028150       -1.95826060585047
O            8.91804608642370        8.29211829053941       -2.60438623681131
O            5.92223465638539        4.71430999251384       -3.56484078222808
O            6.10324924736846        2.36919886911074       -3.55627914642153
O            9.49533559497961       -0.79588457269065       -2.49747231943596
O           11.74200033283274       -0.65599480398812       -1.82882160406763
O           14.75467206859800        2.92776540119853       -0.94829831661496
N            7.71774279157748        7.71381834178638        4.13031906341660
H            8.06769859213467        6.77897655695154        4.26924539669347
N            7.91935122876819        9.94306830533336        4.73110575892214
H            8.30139862536848       10.65397295289969        5.32992744117917
H            7.35007848061598       10.23488084726665        3.95642917818149
N            9.04062001485519        8.30583936175383        5.89813465701658
H            9.41921743643152        8.98696620452891        6.53284877768981
H            9.27183195737491        7.33664338979471        6.03711168755001
N            4.37239548493281        4.60459632178357        3.16903453666195
H            5.02612548625722        3.94184323177848        3.55646001549285
N            3.53993364790280        6.77007541815131        3.24539387052327
H            3.05376823991254        6.65091927672047        2.37424216048410
H            3.35785850810248        7.60551015322692        3.77433699750103
N            4.89327705958415        5.99120510029555        4.92341285099921
H            5.40885142204644        5.25114297214362        5.36667523849125
H            4.75482728947148        6.84532390502109        5.43540109138173
N           10.86833929250374       -1.14486472497775        4.82636812113904
H           11.24399026657928       -2.00819111342607        4.45950711127037
N           10.56940996004951        0.19577057579150        6.70252157867210
H            9.90065015440258        0.78875834432398        6.24267523834339
H           10.76885699317870        0.38377529168604        7.67011552103341
N           11.99637748522336       -1.59818958974378        6.77088883317134
H           12.10166058612372       -1.47130227344412        7.76401015143650
H           12.29948802383995       -2.48234682283769        6.39840356732023
N           13.23258182301833        1.40485567339983        5.30792190273470
H           13.23168996001462        0.52310429394772        4.81551508820254
N           14.27322390309900        2.67212808449486        6.95465051597995
H           13.87936861843301        3.52792652389558        6.60483267282377
H           14.89530640801982        2.72915002146019        7.74220502919910
N           14.65376786127960        0.41412994863913        6.80379361464989
H           14.57041549362933       -0.45975232149280        6.31411936782624
H           15.31979833078615        0.46376440371011        7.55544501463152
C           13.31201995900978        5.72936030401463       -0.70855895996042
C           12.82639392888339        6.77511967918901       -1.47778518846738
H           13.43201581357801        7.18912500941461       -2.26895005183293
C           11.57602323481047        7.31142233466141       -1.21133343898632
C           10.25839174649286        8.20618678172060       -2.99735291781884
H           10.45640898928654        7.24655301355331       -3.50221157127641
H           10.41235194550590        9.03788338435942       -3.69206016820400
C            8.30027367378747        7.12052531933728       -2.16660556976124
C            7.47486655721970        6.45085874808508       -3.05699661522448
H            7.35692327262199        6.81986386299451       -4.06394283879695
C            6.78368465883881        5.32070977030127       -2.64901127146167
C            6.38553956710816        3.56949403899825       -4.22135224066255
H            5.81800615193203        3.51981630373923       -5.15596271758125
H            7.46404372593877        3.65119948678840       -4.43361658522773
C            7.03469678957908        1.90728018747337       -2.62627264751922
C            7.85973836846302        0.85957379651409       -3.00474227610340
H            7.78844885297953        0.45175874202438       -4.00111893597803
C            8.74944209242282        0.31136590275745       -2.09403919300894
C           10.82496754029921       -0.57731270514190       -2.88097811942986
H           11.07394110816288       -1.40893466556091       -3.54755470731999
H           10.92270935052385        0.38198099134636       -3.41491554462143
C           12.00707841529803        0.51401566647412       -1.11532385835973
C           13.17975104012658        1.19648261007898       -1.40215316813857
H           13.83209360643456        0.83869589837036       -2.18337454306125
C           13.52950992154023        2.32125257462709       -0.66980691494559
C           14.73887886946748        4.09745334960646       -1.71618922335450
H           13.96259218821560        4.04197179564936       -2.49677939673821
H           15.73146875721413        4.15671931585555       -2.17368864170241
C           12.54473066477152        5.19717346836640        0.32850235225754
C           11.28450980565747        5.73049141880930        0.55776556677671
H           10.67535849351869        5.31332610906510        1.34044525478938
C           10.78727985713148        6.79266859981241       -0.18322279852920
C            9.41806475899003        7.38774880502660        0.05846467139493
H            9.46330719884988        8.42763839984366       -0.28913236367766
C            8.46119532725336        6.65596143450139       -0.86027569519496
C            7.77325963443240        5.51068425282579       -0.48319227261377
H            7.90116603486656        5.12268969764098        0.51225082728691
C            6.91815130533757        4.84082649035093       -1.34535146912165
C            6.18441750834852        3.57426240226914       -0.96456650304756
H            5.31532190439747        3.49942910599265       -1.63093729612819
C            7.09955566555656        2.42688784645680       -1.33243303029249
C            8.02160371891755        1.88450713860370       -0.44913864115434
H            8.08493702582987        2.29114399889936        0.54496620712014
C            8.84227912080844        0.82109371049405       -0.79789523338713
C            9.86046820795693        0.22242137950999        0.14843051039123
H           10.01649282879402       -0.81606480720488       -0.16970033558227
C           11.15520140224615        0.96424119251017       -0.10563641506705
C           11.51264468986795        2.10782548072874        0.59278374507031
H           10.84817183714084        2.47697887849852        1.35319080440429
C           12.69825191246622        2.78689890586804        0.34950108425368
C           13.09752470718611        4.03070562405568        1.11533021141106
H           14.19129460683812        4.10164866169933        1.06771166801932
C            8.98541237375832        7.39236767019273        1.52510114432243
H            8.73244188486124        6.38599215541860        1.84797097574582
H            9.82708271554973        7.74215218791457        2.12183034230519
C            7.77746304460158        8.31725619552499        1.71346440717086
H            7.13975132437841        8.25926300477717        0.83062731031064
H            8.12543952075567        9.34684800180672        1.79582792358777
C            6.93363962966913        7.91149916943647        2.92785348671008
H            6.15563563026340        8.65431734422369        3.10533411350885
H            6.45994170667253        6.95597013230062        2.71136208640042
C            8.23695633249805        8.66547087728493        4.90109703316616
C            5.66472339738970        3.51732529181764        0.47460618999495
H            5.30548044851899        2.50052970480052        0.64262245151588
C            4.51261649668701        4.50414131402331        0.67579275924623
H            4.90271419118062        5.52161915618139        0.69597758593809
H            3.83336931541403        4.42632577226791       -0.17471422711690
C            3.70371997481977        4.21007776666800        1.94648188355071
H            2.73418087819134        4.70713814559324        1.88960551899334
H            3.51349905880684        3.13718517650422        2.00437792563161
C            4.25414207694793        5.78274059481532        3.77502514272623
C            9.40525565385799        0.21333047398678        1.60831933824429
H            9.26563800120437        1.22626684405014        1.97520198350172
H            8.43650929072113       -0.28671341216080        1.64901213324340
C           10.40275553271249       -0.51615479130146        2.50680205116007
H           11.37411772094197       -0.02768624538162        2.42856563468131
H           10.51106688503108       -1.54542102851523        2.16096524444751
C            9.91135362701580       -0.49233294119675        3.95434643287741
H            9.77570975914208        0.54367538524021        4.25700758744164
H            8.93895008319831       -0.99292951296288        4.01226339561872
C           11.10054621097511       -0.86052200959537        6.10567827455147
C           12.67672106959442        4.01094340939816        2.58538021760580
H           12.94475371410350        4.97104549693194        3.02499678330940
H           11.60080124945177        3.89365034756144        2.66838132680495
C           13.36907496085975        2.86730356293690        3.32969530253404
H           13.42615929274660        2.00103663358724        2.66844171775377
H           14.39017690769858        3.15476729896269        3.58303731835302
C           12.58928734002340        2.48622396180148        4.59236868493291
H           12.46707774616413        3.35443980930113        5.23714496169027
H           11.59218709048329        2.15123620759740        4.30359687243965
C           14.07721442134862        1.51814775382263        6.33220003306779
H            6.45681203344000        3.71527209866966        1.19108568886365
P            8.18939067547856        3.61921327952362        4.22283245304750
F            9.29767238874197        3.46003648886542        3.06211602895145
F            7.32680767593154        2.41560442053855        3.58153152403692
F            9.04263380294413        4.83812136239344        4.87203707250248
F            9.00032186432409        2.56600300900247        5.14456907294572
F            7.07174186450183        3.80066535670196        5.38666239975464
F            7.38895098513746        4.69241999020252        3.31293368612854
