391

O            3.37506763365533        4.23656051365584       12.00239928529991
O            8.96139596901946        6.08890646118127       10.30354024492041
O            4.89248537953963        3.91401566517339        6.67437327393495
O           -0.92350636066408        2.92990981351920        7.72799900642771
O            1.24520634046375        7.27765040524659        4.11058683141245
O            7.07435615845937        8.56643350125026        3.48786066927969
N            4.81409176043505        6.02347255264956       11.82810563224503
N            4.69641161344399        4.56905607564461       10.15823704309430
N            6.93883264300523        6.90400721868328       11.05271615852761
N            6.95728721149255        5.24249330848448        9.57807552294062
N            3.26871388610348        4.07573565443808        8.28458151706761
N            2.81996071913995        4.81361543367188        6.24331748674858
N            0.92601380121309        3.81486103533948        8.77583243224735
N            0.46867882742993        4.43428951473130        6.69498355204268
N            3.32353668855626        6.75666028871971        4.92620889579025
N            2.79760773101614        8.88933822792530        4.62884392275961
N            5.68491071392389        7.28698616302080        4.80246722689495
N            5.15741765517939        9.40806058206522        4.43054780144353
C            4.20159509318577        4.88515824194524       11.39048542969841
C            7.74888441645917        6.07475777742724       10.31582333557954
C            5.55257439743553        6.68569385954144       10.76240285161017
H            5.04524215894001        7.61634527882976       10.46896463435110
C            5.56722818791220        5.60253122271495        9.65336895587510
H            5.20246544726510        5.96167141526397        8.67886293215925
C            3.77781127262032        4.24572099589524        7.02868206914055
C            0.05720642300493        3.64401036693782        7.72961383674980
C            1.98428520416794        4.72593131445440        8.44970245989815
H            2.05794638725377        5.54820304993984        9.17643021624333
C            1.65005687468495        5.18824403297884        7.00883359350095
H            1.46679985840536        6.26858758342092        6.91566171769763
C            2.34363062378165        7.60616490442503        4.52107808517989
C            6.07104428370179        8.42796791299713        4.15901840129027
C            4.45050136568383        7.45582523963500        5.50963476284336
H            4.55464478362034        7.18596758500723        6.57159584803695
C            4.09196735336968        8.94711050729284        5.27444828429487
H            4.02847027808587        9.54379623167701        6.19626445534307
C            7.45986931787598        8.05857254731194       11.75859179832673
H            7.92025242204239        8.75850673339360       11.05107653405102
C            8.52043212946380        7.61849701022471       12.78540592528878
H            6.63429563362504        8.56270476569795       12.26217096893612
C            3.12138158929879        5.33261481395051        4.93259987172183
H            4.02191503575576        4.82879427051134        4.57209571403541
H            2.28459879616991        5.14750666850934        4.25531873132932
C            4.08295199968381        3.54976016685147        9.34200720077034
H            3.47900068757514        2.94139153151009       10.01949870000399
H            4.85339674517409        2.94760055084304        8.85325553620254
C            4.50976087365684        6.57611076098677       13.11831349822548
H            5.40438298790410        7.03410270056009       13.54747352916023
H            4.17825788686967        5.73581718104305       13.73469000851800
C            7.49679710261363        4.08499602767588        8.90109373524711
H            6.89350823652897        3.88043955997952        8.01452455927773
C            7.56689371483890        2.83322881021204        9.79994246603074
H            8.51587573828454        4.34990720924982        8.60858139703050
C            0.62722130893030        3.35561810026175       10.11585368744582
H           -0.37922910523019        3.68554476624506       10.39785782519684
H            1.35524110567186        3.80137740405559       10.79503211635014
C            0.65673054025347        1.81697588772045       10.21774036363754
C           -0.18386029912759        4.42128008903744        5.40763839330707
C            0.22304066818174        3.19088625668933        4.58618533834623
H            0.07405833285082        5.33283067068794        4.86623613936530
H           -1.26399380071887        4.39734906287184        5.57037793605291
C            6.52765050337430        6.10986443364704        4.86960722085125
C            6.74460273749472        5.47502790346063        3.49601736093237
H            6.06344509300067        5.39156704915199        5.54507167689165
H            7.50903942567756        6.39847468293293        5.26037751713847
C            5.25507450221304       10.72788589153287        3.85148186615370
H            6.28593023654331       11.07708481096071        3.95446448032576
H            4.59642409504159       11.40767731784779        4.39321224348816
C            4.89229401365960       10.70290996113302        2.36126772117064
O            2.94511525077594       12.28158958105348        5.80799424907620
O           -2.88009342012279       10.72690488056539        6.77829945776835
O            1.00488988022526       12.32682240899675       10.98732406455550
O            6.75153477951641       13.93318385713459       10.23370554362875
O            4.93969477557115        9.33279046270891       13.55449113773095
O           -0.83625823603861        7.68651910381354       14.32499971296219
N            1.43253285211531       10.55744909413820        5.70908586220264
N            1.40713606058485       11.90255887055048        7.46965093117702
N           -0.84684947985895        9.86684207188125        6.14653622964836
N           -0.91799716798243       11.30054204748321        7.83804008093939
N            2.70424578403523       12.38100011236700        9.44993058640750
N            3.14444450633358       11.65819663879856       11.49745938957415
N            5.03442469448943       12.91571095868764        9.09021263434350
N            5.46330518091408       12.27900109711358       11.17040632819714
N            2.79576666901638        9.68829919817185       12.82366483420637
N            3.49937671602750        7.60379575335685       13.09499498664052
N            0.48784707201693        9.02582781720561       13.02021243565320
N            1.19073981070492        6.96071537100293       13.50946278924041
C            2.02817364459533       11.63861294832357        6.28548888672324
C           -1.67745617820188       10.65369169050031        6.90354401380930
C            0.50640907580107        9.90085748980448        6.61291371543420
H            0.87535418005875        8.89505399022798        6.86558096740609
C            0.45283128186492       10.87238519407793        7.82071981221894
H            0.73721209871303       10.41084517178064        8.77841356682899
C            2.16469874980668       12.13076235713034       10.67668154184189
C            5.84112295793241       13.13329456401857       10.17423700838911
C            4.06354332139081       11.88995017710843        9.33518547391763
H            4.11607444917538       11.09182520572894        8.58003615720651
C            4.38044708086642       11.42195705540769       10.77994265872638
H            4.66418884578952       10.36196233287661       10.85772486550598
C            3.85213608027706        8.92204549154085       13.18919146021364
C            0.18031835213791        7.87741439340035       13.68781016284328
C            1.70762156656496        8.90165377353790       12.28485425511378
H            1.56502114374780        9.13187964356250       11.21774673366215
C            2.16344757440274        7.44266887855147       12.56073641043659
H            2.19063751188200        6.80605921029326       11.66336249148229
C           -1.37107479851500        8.92677617172468        5.17872820853659
H           -2.18580002716343        8.35479732940547        5.63469901705963
C           -1.93327185479539        9.66358112185882        3.94704299924385
H           -0.57416713828638        8.24129871745387        4.89025281857954
C            2.85554455842311       11.12489450059695       12.80501565147179
H            1.89223838981796       11.53391533207631       13.12592710464085
H            3.64500378402028       11.40799722469546       13.50403689079998
C            1.90433146230435       12.90494825733815        8.37653711151559
H            2.49807685146961       13.59612429307377        7.77460476515485
H            1.06481934548276       13.41915007504373        8.85003077157876
C            1.91089158256322       10.01300557256467        4.46652908508347
H            1.06822961898696        9.65314577872315        3.87104481147070
H            2.42930664733338       10.82809343885489        3.95535411253897
C           -1.48294647142273       12.21081511500460        8.80857648690809
H           -0.85133758808838       12.20313668886044        9.69811477718966
C           -1.62220209127481       13.63942025688214        8.26881295018216
H           -2.48646436619400       11.85204389014809        9.05158481653691
C            5.29705909504303       13.52341762332597        7.80242046352044
H            6.34120391860773       13.34722672354026        7.52440687231984
H            4.65215528895329       13.05271966763384        7.05997972269344
C            5.05915644209200       15.04636027589391        7.84982451119295
C            6.12303417448103       12.25754813689201       12.45651370320604
C            5.69067147054994       13.46341100953104       13.31582264797561
H            5.89108484901730       11.31147521837128       12.94625161281535
H            7.20224945896836       12.31917315055942       12.29171780247186
C           -0.51322989551562       10.04833737972053       12.78447993979869
C           -0.87505992305800       10.84034057178272       14.04557613658115
H           -0.13178997555871       10.73304750248361       12.02611639966965
H           -1.42638733833509        9.56432247577086       12.42058418354356
C            0.88859899334823        5.55445755804472       13.71113300389060
H           -0.17722614957095        5.50987363915103       13.95142115894401
H            1.08459153501240        5.01404647765939       12.78098692885531
C            1.66364401267875        4.84334930099753       14.82806675716677
H            7.43651037624927        4.62835446109963        3.60732315171028
H            7.19602343177883        6.21738111924453        2.82452832659220
O            5.51241948656454        5.02724760993196        2.96303382592522
C            5.66117185411009        4.47248054726660        1.67459230313640
H            6.26881754526999        3.55745923738204        1.71797618528362
H            6.16453900797489        5.18590139200858        1.00666758898913
C            4.28828427973267        4.14101103970518        1.09427911980707
H            3.77697833954336        3.40015531369998        1.72526356423129
O            4.50547578092166        3.63155984584303       -0.20203343342175
H            3.67019753975019        5.04964173093940        1.06209443300551
C            3.32676859987414        3.41504097216785       -0.95083072420264
H            2.67581852828518        2.67226433335990       -0.46805824231240
C            3.76930962198405        2.92248245615659       -2.32595446445781
H            2.75996516615572        4.35153761539699       -1.05670356748794
H            4.30581332509773        1.96934087224071       -2.21407253582201
H            4.46454363434511        3.65787850647269       -2.75657502119178
O            2.64303683165246        2.76356338396892       -3.15722541448417
C            2.99036696316403        2.37797205773406       -4.47217218235351
H            3.51070901233142        1.41369066009679       -4.47242660154889
H            3.63391682700594        3.12949299062082       -4.94200933445232
H            2.05665673030480        2.29839437823926       -5.02435043406873
H            5.65874968362660       10.13296766315460        1.81571605153941
O            4.83192033334219       12.02828249347901        1.88753415233327
H            3.92384555424168       10.19871562559386        2.21461745787242
C            4.55757704552604       12.10250050339903        0.50462080502354
H            5.30982442561810       11.54284865457869       -0.06916477072906
C            4.58018133363524       13.56978293056553        0.08725885016668
H            3.56914074189089       11.67493637269601        0.28152922876462
H            5.58681002210389       13.98187198075988        0.24694303063985
H            3.87421476051902       14.13577894985428        0.71113877227022
O            4.21706204521128       13.64871553128613       -1.27203740929346
C            4.24658770543178       14.97196446388342       -1.77505715875688
H            5.27649670076133       15.35641052714439       -1.78470486878052
H            3.64000052345980       15.64178725344778       -1.15177068159829
C            3.68735330147146       14.94627914475452       -3.19433932276213
H            4.34948012247873       14.35352043222468       -3.84272851186005
O            3.58670751564565       16.27056177733405       -3.66459080856847
H            2.69966353354129       14.46158398782032       -3.18233405973832
C            3.11480024731106       16.34724764860613       -4.99288589651665
H            3.78347829779790       15.81580242627659       -5.67961465125482
H            3.09083945312247       17.40447062053005       -5.24714609411877
H            2.10778067554968       15.92281145149284       -5.07909966955738
O            5.18791212068857       15.66151423648754        6.59097795020531
H            5.82699511109677       15.49651650744192        8.48395340089013
H            4.07207250721014       15.25566353527441        8.28569517932276
C            4.04087149450782       15.57319521148214        5.76544580771167
H            3.19345179406798       16.09237790565678        6.23763252866975
H            3.75132248669284       14.53359470487822        5.57391322074279
C            4.37222439847742       16.25699863623261        4.44257964901431
H            4.75101294004551       17.26989681122085        4.64258487346029
O            3.19878708344440       16.31067701790068        3.66054290705811
H            5.15770751073547       15.68948384061394        3.92483126465475
C            3.42423333189985       16.85416686578592        2.37783840518457
H            3.78259344813512       17.89066816207766        2.45257299966130
C            2.11455818443301       16.80724359037303        1.59566470676959
H            4.18405694268582       16.26918747043812        1.83967192204492
H            1.39976576543950       17.52967053406231        2.01420784684133
H            1.67811903546326       15.80127660237195        1.69077422771335
O            2.39562521004403       17.10647750158138        0.24763992639030
C            1.23956301391871       17.19189546555758       -0.55986424726691
H            0.58432103912907       18.00186843652146       -0.22108496039617
H            0.67904026342066       16.25023746810899       -0.54496440038312
H            1.59338385344760       17.39563429722239       -1.56821073102765
H            6.06815177771621       14.37327196027467       12.84132810894179
O            6.23904686150729       13.45988777086208       14.61065369443258
H            4.59280010095928       13.51408386392361       13.35926194146195
C            5.60333203516060       12.60144615247662       15.53717045819175
H            4.52483130467571       12.81572868428671       15.57878055627569
C            6.22987251902872       12.87687554556508       16.90125851598660
H            5.73801783850893       11.54438344575892       15.27479269451162
H            6.21001557138867       13.96033500540891       17.08721013724557
H            7.27238067505633       12.53542423613424       16.89715083938661
O            5.49544076066866       12.19368492905160       17.89771930965917
C            6.01754253915458       12.41959696290293       19.19274196361064
H            5.87319072905201       13.46996222901748       19.48606084142141
H            7.09348879467724       12.20394834054354       19.21165116396178
C            5.29310842325163       11.51698117801557       20.18707304607348
H            4.20565743245561       11.64827587914952       20.07934319723068
O            5.70700245534553       11.87824483867488       21.48616218879160
H            5.53806258245502       10.46535238887727       19.98475898275374
C            5.15130400113025       11.05284171334052       22.48682985506523
H            4.05641727411818       11.10574100494775       22.47695279495478
H            5.52991790367229       11.42788618511130       23.43491319274712
H            5.45889208894148       10.01007151890042       22.34940170946316
H            9.39292562784526        7.24688573962597       12.24294328084781
H            8.10482039376020        6.80487569515468       13.39648778486788
O            8.99041478103490        8.66712922067296       13.59345302526557
C            8.20025385616750        8.95150334114860       14.73168734003324
H            7.96638253770913        8.01064250498476       15.25055362519092
H            7.25734211238588        9.44466270969107       14.46143996551854
C            9.03762140415498        9.86244512877469       15.63797608009209
H            9.94141343279654        9.31506508945743       15.94038910803861
O            8.35876969726172       10.35874423934050       16.76577121189998
H            9.33556967980252       10.74331263947074       15.06552006063701
C            8.02903764651527        9.41291505998342       17.76362927491370
H            8.72099842547230        8.56399798333511       17.73894661547888
C            6.57852897525255        8.92442395565683       17.66668253064207
H            8.13816384024390        9.92273194814977       18.72629771891721
H            6.44419937988722        8.22476921744058       16.82949064538001
H            5.91758706779877        9.78636031081038       17.49414980468230
O            6.25519935105551        8.28647671321245       18.88499441497041
C            4.99100339343933        7.65911867607186       18.85905185001667
H            4.99168092449390        6.81984593977161       18.15298604769136
H            4.20220375216552        8.35913345902245       18.56328226247602
H            4.81113263328846        7.29008738743854       19.86644931315096
H            7.99349496511410        2.02167160808834        9.20325777865289
H            6.57125715174019        2.54151882392178       10.14899769454492
O            8.43347332042914        2.99370723672944       10.90936035076231
C            7.80890997758283        3.37258374231773       12.11712619992359
H            7.27062340068409        2.51651594837720       12.55231301430297
H            7.08887055942235        4.18624768377623       11.97247730736039
C            8.89155064465841        3.85179289559375       13.08039887837957
H            9.55933795382083        3.01719924103174       13.33261360310772
O            8.26143340161582        4.35148562204659       14.24277524703934
H            9.48383178212865        4.63310397586466       12.58413724598564
C            9.17785914342736        4.72593242314112       15.25336331415232
H            9.87474280374207        3.90356062253085       15.46447339227992
C            8.39087701930850        5.05380829885723       16.52070691759887
H            9.76678363911665        5.60040260642253       14.94226455060329
H            7.83830462038920        4.15985165067205       16.84488216146954
H            7.65504287609185        5.84503727057772       16.30755342499262
O            9.29742885962646        5.46878667418667       17.51281929608688
C            8.70379943042341        5.61412174049620       18.78943442581792
H            8.26837575971290        4.66664773507750       19.12552151723377
H            7.92691397840983        6.38616012765530       18.78717451166443
H            9.50698552209023        5.90824159400163       19.46088849985206
O           -0.24564597287941        3.36416657424088        3.26857581866885
H           -0.21485962418826        2.28793307600931        5.03694055707447
H            1.31802660681580        3.07920692730303        4.59173705705677
C            0.17935089506549        2.34391910481278        2.39174320646223
H           -0.07315629970356        1.35392233481317        2.79654320658275
H            1.26897452579459        2.38782730402504        2.24686454834266
C           -0.51890714887274        2.54941011753328        1.05031688844627
H           -1.59357982655601        2.35509908275353        1.16611287435289
O            0.04836572184008        1.66747912906190        0.10728108644042
H           -0.38963112911179        3.59418690174895        0.73427401336158
C           -0.73482052670797        1.53737395658460       -1.06588121095782
H           -1.68844791585402        1.04100755147435       -0.83272103665767
C            0.04504111871858        0.68894896796640       -2.06455410679210
H           -0.95779877427055        2.51882317263122       -1.50102700159262
H            0.35384704849266       -0.24716253934564       -1.57464991394577
H            0.94612781492475        1.23110395402200       -2.38313824461798
O           -0.79028003773517        0.41733268752807       -3.16831778312411
C           -0.16987219361814       -0.40466412004357       -4.13250223755675
H            0.08067108566642       -1.38543165722159       -3.71096482914300
H            0.74499883545022        0.06083757297770       -4.51478729118084
H           -0.88941773962915       -0.52491960653646       -4.93932388112076
H           -0.00848437390892        1.41309686807475        9.45081503140250
O            0.14154810024066        1.35195037654941       11.44131575353412
H            1.67512365370766        1.44074580282500       10.05214901011870
C            1.01641237413299        1.46082973322065       12.55133968587316
H            1.85666588129613        0.76170155243031       12.44175805951433
C            0.20196304487427        1.13286027944761       13.80191467285684
H            1.42512532201735        2.47231409218535       12.65379652273302
H            0.01790245046976        0.05189036728922       13.86532916144467
H           -0.76965730460013        1.64178605292273       13.72488878934367
O            0.90732922895533        1.58410733679686       14.93836001316213
C            0.21963660191049        1.33466397812488       16.14827575529350
H            0.13663617667328        0.25351540863513       16.32882465901477
H           -0.79428712197924        1.75606737661790       16.11000172173580
C            0.99715576058877        1.98466118368816       17.28910048574468
H            2.03246158717272        1.61187081874516       17.28157385846047
O            0.35923644886347        1.65463875747746       18.50357494513022
H            1.02114877058666        3.07443762111437       17.14779976693909
C            0.94669131317876        2.28973850582155       19.61853072297420
H            1.99237423583833        1.98375363984720       19.73937122086491
H            0.36869539101897        1.97815889919209       20.48559887572043
H            0.90554316255777        3.37984981486758       19.51418277693965
H            2.73522821021419        4.83524375731603       14.60451202882824
H            1.32133218056173        3.80413183771312       14.84876087379556
O            1.43171823183812        5.34693597276789       16.12475968492318
C            2.17933213905925        6.49623279682453       16.47632663616446
H            2.68266078001469        6.92828679253886       15.60743724629844
H            2.93971316749402        6.20743777163441       17.21309312356198
C            1.27782675097910        7.57934659778521       17.06981049134278
H            0.37356853914075        7.67849764322953       16.45330564854813
O            2.01760502403153        8.78455214363959       17.07251342063585
H            0.97080923146411        7.31234568952432       18.09026826937279
C            1.30991797406110        9.87005896629228       17.63094784892787
H            0.30711870983613        9.94206422009587       17.18755973156060
C            2.09447099388992       11.15071551540871       17.35801186992848
H            1.19687273817425        9.73830961208480       18.71751592549233
H            1.99051499585002       11.42924638035627       16.29937397611176
H            3.16098837814709       10.98050323374501       17.56659855559875
O            1.58753288752711       12.16704822151252       18.19526540839068
C            2.26552965892633       13.39807353888970       18.03298002662938
H            2.05563308780084       13.83305325197848       17.04931971792933
H            3.34487623260313       13.25923562752270       18.14058040309334
H            1.89077254467971       14.05750767815103       18.81281138251052
O            0.15812913019757       11.74823390582329       14.39126069308103
H           -1.05155674729525       10.14090005965683       14.87038592076578
H           -1.79958389897249       11.38698665625839       13.83581150983868
C           -0.27853392669178       13.03735696443254       14.75806354589865
H           -0.93829396379686       13.45847326734359       13.98827319953939
H            0.62236702671139       13.65218447662259       14.81347489201614
C           -0.98968935483316       13.07610632049921       16.11602793105692
H           -1.93996014087161       12.52215479026611       16.07014720840998
O           -1.23259134012330       14.43124152625549       16.43052397571058
H           -0.35756970357886       12.61075197422273       16.88483104116670
C           -1.81611482683630       14.60110577515856       17.70490925390155
H           -2.79800693603206       14.10811038070585       17.75146450338255
C           -1.98350518957195       16.09620801581794       17.95622200324287
H           -1.17627351075399       14.16253770661920       18.48328422594671
H           -2.62552299975100       16.52853227366946       17.17435163219072
H           -1.00081581929959       16.58696044014563       17.90138627350213
O           -2.56038209366660       16.27400016313493       19.22933225947851
C           -2.74235691857436       17.63296290928587       19.56509234739668
H           -3.41050241531261       18.12859159627392       18.85145208554018
H           -1.78442022953885       18.16518381064247       19.58350892596641
H           -3.18899925004668       17.64393089633568       20.55662680229849
O           -2.41251311843145        8.78891382012993        2.95479527233581
H           -1.17026908536095       10.33919084966071        3.53524777648156
H           -2.79548618297523       10.25507355798577        4.26601782825138
C           -1.41975265366289        8.25192206332598        2.09870587286974
H           -0.64561407593413        7.71141753320369        2.65466112299283
H           -0.93933866319394        9.05808992249556        1.52422998561064
C           -2.12169365819015        7.30006344764561        1.13465902073766
H           -2.50510837977016        6.43226505502003        1.68890806035435
O           -1.20278929448055        6.89185739047256        0.14443042754501
H           -2.97476829309046        7.82198977084205        0.67658259413954
C           -1.77776712669349        6.00218444356158       -0.78871715339942
H           -2.14390098396493        5.09627715053779       -0.28439021247421
C           -0.71792393707299        5.61379036847458       -1.81548144404476
H           -2.62925574946829        6.47471526031428       -1.29932167952496
H            0.16927492889379        5.21993860079728       -1.29618357623938
H           -0.41194918982808        6.50245521448676       -2.38629957112541
O           -1.27151008138075        4.63851775294514       -2.66555401836741
C           -0.40720079056405        4.26355550027389       -3.72134521076371
H            0.54025587530432        3.87159305799832       -3.33650825897578
H           -0.20580057483448        5.11670489433969       -4.37913040415756
H           -0.93090379124662        3.48437529225193       -4.27034857883450
O           -2.79037470306282       13.71520558786344        7.48170654072804
H           -0.74780541788856       13.90851055185324        7.65795133574038
H           -1.69366242156119       14.34216256051491        9.11305943602013
C           -2.96984507567056       14.97020934726873        6.86720964473032
H           -2.11933981267228       15.21081606898144        6.21206612122677
H           -3.05677763986534       15.76497623843842        7.62301681314186
C           -4.24899444036057       14.91040959696119        6.03854800143172
H           -4.16197580275927       14.10564313463205        5.29505812672537
O           -4.43143660481366       16.16120345793090        5.41210458227540
H           -5.09828415182125       14.67475567778275        6.69497591016348
C           -5.60170729926404       16.21724365487232        4.62338931013851
H           -5.56884134069418       15.46236847576684        3.82503926487959
C           -5.69423262983291       17.61046613159581        4.00857865009218
H           -6.49306506115179       16.02568896663388        5.23751643570822
H           -4.79932463200849       17.79905597853237        3.39749726085813
H           -5.72508066344824       18.36146234038714        4.81158281235530
O           -6.86022570607213       17.67480757221129        3.22030434551193
C           -7.04176722927475       18.93437704925192        2.60879780193437
H           -6.20374015830165       19.17345824563090        1.94421371651323
H           -7.13660287205265       19.72641760340829        3.36039478557452
H           -7.96068451351506       18.86200115627268        2.03170962201806
Cl           2.97009584318331        8.26440263126252        8.84355412358364
