137

O           14.65190308126318        5.17832045000697       -0.94695665325778
O           11.28713629666961        8.41551445186503       -1.89871025409402
O            9.05133481211167        8.30215713063755       -2.60666712735589
O            6.03254002019135        4.75843783308586       -3.62801773244377
O            6.14376091804910        2.40736791259121       -3.59993195282350
O            9.45189690785901       -0.83577815829918       -2.49036217253027
O           11.69500588861139       -0.72579156341618       -1.80353844513076
O           14.75154308196333        2.82936899980186       -0.94944870193075
N            7.60439436595620        7.66948065172416        4.12087959975987
H            8.19930081248458        6.88209127202229        4.33498081251792
N            7.13304029344772        9.89704332310446        4.56111786336144
H            7.26466628275093       10.71865460663970        5.12449671651684
H            6.59303582486481        9.98642393583478        3.71862822566543
N            8.55694385486332        8.70844008363080        5.92161477551565
H            8.70652221170795        9.51446795022762        6.50296157460917
H            9.04504587414334        7.85813995786197        6.14505857367525
N            4.55434298415972        4.69133530035822        3.10626948745333
H            5.30577130985037        4.03736250662228        3.27621827131653
N            3.44564406323884        6.58888617447021        3.88570049967266
H            2.79927976724204        6.58710480848741        3.11683073351092
H            3.26413392841653        7.22493177462406        4.64290372139309
N            5.16437721202951        5.66083303385286        5.08369144491585
H            5.86335193052748        4.94807789632243        5.20483430642550
H            5.00750919959514        6.31301679088169        5.83182744271659
N           10.67519058828213       -1.06727041638090        4.90837879014801
H           11.00409357109866       -1.98566057498143        4.64631400943163
N           10.54696158576226        0.53519795960259        6.59164177228597
H            9.95045571261791        1.13966732174575        6.05272295495058
H           10.79988841930326        0.83450500934243        7.51753018524364
N           11.83298945131610       -1.34276975045661        6.86683581559586
H           11.98483094766670       -1.09134508683298        7.82954545927161
H           12.04857656653653       -2.29195467761357        6.61312012501516
N           13.36740872316617        1.29067540915933        5.27991914087293
H           13.27768085234343        0.40426592981264        4.80425236615108
N           14.65624084444216        2.53728019543252        6.75625945519854
H           14.26455380185910        3.40273137387701        6.42918358650696
H           15.37187138283231        2.58384817542256        7.46046183958403
N           14.91831612713259        0.26143694653596        6.61385770060663
H           14.73563755753464       -0.61748310437643        6.16232326843238
H           15.66479600532109        0.29157832838283        7.28596138464157
C           13.37201714893824        5.66700141047136       -0.67975585050302
C           12.91261608898033        6.73562373844569       -1.43366347254954
H           13.52923834715714        7.14732362376391       -2.21767267381655
C           11.67220404982602        7.29284051842242       -1.16386929809276
C           10.40154734591292        8.22027631190460       -2.96422329882545
H           10.61227803594628        7.26772048497044       -3.47772746107503
H           10.57338220747371        9.06175706092037       -3.64288611001461
C            8.42304553160263        7.12912721413255       -2.18618907769156
C            7.60437478656254        6.47110490914788       -3.09221464726811
H            7.50393742903582        6.84716239284653       -4.09850744219334
C            6.89202079319120        5.34843963682799       -2.69907059523450
C            6.47535481148065        3.59443206974324       -4.26559548782713
H            5.92727994042754        3.55585691886217       -5.21239191880657
H            7.56021632061098        3.64289963081301       -4.45495843707931
C            7.05061705487231        1.92033937752879       -2.65717023857604
C            7.85458106477717        0.85147131208159       -3.02198197989352
H            7.78508547652257        0.44071851282884       -4.01737473238316
C            8.72412011393248        0.28890975426339       -2.09997094051793
C           10.78793784141229       -0.64379819658656       -2.86416414953070
H           11.02868344189112       -1.48683478286321       -3.51943475455491
H           10.90666626219582        0.30779332311047       -3.40793540165209
C           11.97407371433606        0.44816539900915       -1.10104686121416
C           13.15498889248877        1.11423263287862       -1.39284052054854
H           13.80340076497433        0.74320858250824       -2.17123588488577
C           13.51860259066269        2.23930820873724       -0.66745871927746
C           14.74988046934642        4.00604996805029       -1.70671191760846
H           13.96176722436407        3.97402892872481       -2.47672321167000
H           15.73702760595030        4.04790523233444       -2.17812386394771
C           12.59040455863821        5.13834569089467        0.34807374014406
C           11.33990986044062        5.69190939469618        0.57907332665599
H           10.71995707354032        5.26882459276053        1.34947428840416
C           10.86639368201466        6.77308530114266       -0.14968120602672
C            9.49533008839774        7.37084989701042        0.07120930144742
H            9.54512388176867        8.41752551183128       -0.25454441937691
C            8.56417811333308        6.65177142766981       -0.88275264619639
C            7.86457527780941        5.50856767676808       -0.52383383363649
H            7.99330473925578        5.10535770569638        0.46503812312446
C            7.00416306775846        4.86121710388203       -1.39655545576481
C            6.23157946751588        3.61991931686422       -1.01299101964242
H            5.36231783658041        3.56601878499072       -1.68104065803010
C            7.11696229065428        2.44622746503528       -1.36635818664163
C            8.02321267392695        1.89316658055936       -0.47446043799862
H            8.10465024077143        2.31898561366733        0.50972465317298
C            8.81999427939859        0.80747379937141       -0.80800370459525
C            9.81748362238207        0.20124090764488        0.15552744558491
H            9.95847929758218       -0.84451544111336       -0.14525046422627
C           11.12480312894705        0.91911270228473       -0.09864533965864
C           11.49516268632785        2.06375225839411        0.59040010966199
H           10.82885500011907        2.45387518673525        1.33905652954864
C           12.69301770915431        2.72111488949577        0.34855697885175
C           13.11622277892462        3.95202356215349        1.12155731871165
H           14.21150231606310        4.00169139312855        1.07372756400918
C            9.02028166741540        7.33698954364633        1.52428393732606
H            8.89728001996853        6.30851674023857        1.85416144914207
H            9.79326675629811        7.79690297632547        2.13925693074676
C            7.69379103401673        8.09125291159661        1.67074827794518
H            7.09556587704421        7.94207120614545        0.77082118171881
H            7.89367182221529        9.15942901643280        1.75557710548324
C            6.88369158808041        7.58166381029541        2.86754444879167
H            5.94108101558467        8.12490625818326        2.93999642589231
H            6.66095601845214        6.52714650725603        2.70843615615785
C            7.77975470958368        8.77148976329247        4.84372052881641
C            5.71154762988766        3.60281223043244        0.42754105017126
H            5.26632185350378        2.62016186065293        0.59276083665237
C            4.64910306822433        4.68637481875352        0.62897695708188
H            5.12177059009018        5.66800278752767        0.65817650054110
H            3.97203833296356        4.67469085209908       -0.22684677894073
C            3.80535120155972        4.46233535222311        1.88936676799135
H            2.93559478542000        5.11572108429350        1.85321749171942
H            3.44251816228580        3.43053946325407        1.89297747217535
C            4.36435521765144        5.63687482251949        4.02029353363982
C            9.34162664270282        0.22674113568560        1.60887999079427
H            9.21061771306142        1.25000029007170        1.95155637450680
H            8.36708524310261       -0.26292900352440        1.64016260757059
C           10.30935165805728       -0.49281453377849        2.54701100791178
H           11.27418759127466        0.01365155274591        2.51921245460741
H           10.45410820238630       -1.51835584538758        2.20360291413941
C            9.74192466678714       -0.48037819594503        3.96864079305968
H            9.52594318563709        0.54832115351577        4.24453709674966
H            8.80135155818980       -1.04002587759306        3.98329639451212
C           10.97795894051341       -0.62699693006810        6.12691756997199
C           12.70300084881804        3.91650028855276        2.59392708248475
H           12.96814827779420        4.87269190781119        3.04452464383106
H           11.62712236811134        3.79169925578748        2.68719028434095
C           13.41746430146219        2.76767236708227        3.30808761942920
H           13.42755037783082        1.89890603731983        2.64695287984190
H           14.45525625246235        3.04495277705911        3.49897421821380
C           12.70939390470677        2.39583680153680        4.61425399242785
H           12.65142655216165        3.25993763351785        5.27370712405880
H           11.68915579924736        2.08789069621172        4.38652469874725
C           14.33763510867680        1.38162730794584        6.18940497334485
H            6.52577756201860        3.73047965888101        1.13644337929929
B            8.66290466562820        3.78917197114538        3.93641248948092
F            8.97809279032042        3.71411831335927        2.59496800500962
F            7.28948916174729        3.67342698878368        4.09104135791690
F            9.05653141517420        5.01761723164572        4.43863620837005
F            9.29793173966466        2.77838221743489        4.62829224025668
