391

O            3.43133239397827        4.20646950370758       12.08606359591232
O            8.89433431433803        6.31395641800617       10.27069557593953
O            4.88630317363768        3.87226623687544        6.72447454768256
O           -0.96474336689172        3.07609227278751        7.81741169525658
O            1.31651456233997        7.23635223255340        4.06111638646641
O            7.14260811752386        8.51252523821088        3.57800488308959
N            4.79399711739865        6.05151018231193       11.89791676993045
N            4.69796515038878        4.60627650034921       10.21699042847563
N            6.85606621386373        7.03490090217594       11.07728334080311
N            6.91275864608625        5.38679790637748        9.58640548735352
N            3.27981819375415        4.07321490350948        8.34831098991200
N            2.82640335185552        4.80448065369428        6.30441185316756
N            0.93093740718747        3.88016138348053        8.84601097234447
N            0.46118008603100        4.55066962084331        6.78537641230200
N            3.36456106602137        6.70573916237015        4.94239786491423
N            2.86110026482698        8.84176553377220        4.61862009331337
N            5.72977815173380        7.23483216614311        4.86799115449852
N            5.22641509999152        9.36423053408923        4.51542397780744
C            4.21927287898176        4.89210629777850       11.46214562731705
C            7.68231017888001        6.24702466129824       10.31244906468227
C            5.47479310414590        6.75350437308853       10.81941527059634
H            4.91940316116610        7.66215044994106       10.54388267430725
C            5.51013796391988        5.68072993068504        9.70133163045311
H            5.10538909190431        6.03436609767768        8.74002817117912
C            3.77997080631680        4.22616546623331        7.08676339841331
C            0.04216842922622        3.75632450254286        7.81296292610002
C            2.01536729612519        4.75870233058360        8.51952572988862
H            2.11379525313234        5.57708779919935        9.24863044504187
C            1.68488838506410        5.23813759431636        7.08320269648364
H            1.55803799706687        6.32755297035461        6.99502769788025
C            2.40544015945582        7.56034544161611        4.50358924212566
C            6.12979708826693        8.37691703773452        4.23914015579382
C            4.48084146360665        7.40093768490838        5.54906188400899
H            4.56515188622591        7.12722260234160        6.61217223657847
C            4.13126536528933        8.89480298862386        5.31331545112891
H            4.03305451382796        9.48278501898946        6.23802192876888
C            7.32764041620160        8.23110066328730       11.74855491464566
H            7.66759304487606        8.97255788689050       11.01555506987386
C            8.48959928325763        7.88699430304813       12.69789187041536
H            6.50112386644884        8.65771580882368       12.31766661915036
C            3.13134115538857        5.28642064071225        4.98045730086688
H            4.01863267117723        4.75380812288231        4.62906789625589
H            2.28910875367701        5.10758328619305        4.30819988141791
C            4.10683078656439        3.56757352233473        9.40665620920579
H            3.52014602494944        2.94897076016386       10.09016859935458
H            4.88768534409980        2.97990782127893        8.91676389906040
C            4.49084539371187        6.57811981415398       13.19965279205732
H            5.37664634191798        7.05338832283111       13.62890124411156
H            4.19070962341319        5.72005882547871       13.80720613254436
C            7.48472048401107        4.24233882996483        8.91095639728741
H            6.87530188543939        4.00462242517906        8.03727332491585
C            7.61769678953269        3.00723674854041        9.82413518173708
H            8.48669502169834        4.54560124509262        8.59916921727578
C            0.65465552089572        3.37955657769553       10.17546102627914
H           -0.34886044750775        3.69709198020291       10.47906767686130
H            1.39101399413439        3.80771762247229       10.85711360785722
C            0.68886483445858        1.83906167666730       10.22822515460882
C           -0.20932101260091        4.57694376587247        5.50714972119788
C            0.12853473323929        3.33635522662191        4.67054259752501
H            0.08791470118871        5.47576488249730        4.96479918452538
H           -1.28602304265443        4.60894956898762        5.68594928504382
C            6.54383826579768        6.03545736608529        4.89323771869229
C            6.70846732658008        5.42094223143980        3.50390758150323
H            6.08095729578559        5.31910947023400        5.57151126679352
H            7.54045364333509        6.29758031209680        5.26054833906196
C            5.34115308246325       10.68999816549923        3.95294831823731
H            6.37139262069878       11.03136978540956        4.07896902052448
H            4.67581621534600       11.36640517745409        4.49083423990562
C            5.00454675387415       10.68909866643022        2.45718471973661
O            2.97402432015007       12.23424789927582        5.78180829436949
O           -2.83889323447888       10.63057195998610        6.73012352109284
O            1.01153949426537       12.31542187781698       10.95448880512922
O            6.82157935560273       13.71381550606680       10.19413010098428
O            4.84910054276495        9.32804771247164       13.71054646075712
O           -0.91854159847245        7.69911185593815       14.28322787490662
N            1.47136310007881       10.50303074293429        5.67630068150291
N            1.43024274419340       11.84936450218999        7.43693182119559
N           -0.79625777508066        9.77766944465385        6.11697184663315
N           -0.88780400488884       11.21532599563321        7.80375973500281
N            2.71871219118473       12.32084152820527        9.42474953280347
N            3.12827332846727       11.58404007728558       11.47473997268526
N            5.07065239533902       12.74990449758636        9.05705725196216
N            5.47361861694483       12.11369690265462       11.14189211446378
N            2.74642545397508        9.65866329516894       12.85946652623527
N            3.45215296690443        7.58019671135314       13.19467542292395
N            0.43418575731801        8.98991026301752       12.96097902937013
N            1.13157944477059        6.94806080198577       13.55143076102184
C            2.05704785439820       11.58660429893095        6.25670599913334
C           -1.63461457305039       10.56367278439033        6.86451026483793
C            0.55561850381747        9.83430631312322        6.58214109276815
H            0.93968752798804        8.83464771479263        6.83766279915413
C            0.48843112614215       10.80738663403393        7.78796628582558
H            0.77795822183456       10.35025222115395        8.74653075419879
C            2.16749040017595       12.08524730275267       10.64884570894471
C            5.88079071584171       12.94619691185390       10.14005106580850
C            4.05578098285788       11.77144761739824        9.31194962049832
H            4.07301079065183       10.96450020798615        8.56413540635692
C            4.35577559498156       11.29955347365726       10.75973553744677
H            4.59870832612558       10.22884326877979       10.83969916780054
C            3.78380081130370        8.90403713822364       13.29325701436135
C            0.11637461797347        7.86934949051487       13.66493357766020
C            1.68697604046170        8.85481063138876       12.28796564429723
H            1.59332174519367        9.06096383215049       11.21043368982365
C            2.13460723923120        7.40393396247483       12.62063224066072
H            2.18931941475434        6.74105708687043       11.74375542906473
C           -1.30519887949912        8.81677631001214        5.16129585072396
H           -2.10777816158350        8.23506425624647        5.62536583851110
C           -1.88085397092636        9.52500915166398        3.92048394819669
H           -0.49564388505313        8.14377849932222        4.87967150927305
C            2.81386828642868       11.09434520378075       12.79425968903332
H            1.84512595410624       11.51907835848495       13.07773559975173
H            3.58883163170814       11.39667269510875       13.50162798622735
C            1.92872209508178       12.85031046156401        8.34576656384637
H            2.53007733546177       13.53571641981673        7.74466054854811
H            1.09151930977309       13.37109928646875        8.81605434547824
C            1.97181445251077        9.96204436937376        4.44055522653441
H            1.14148657148601        9.59747183822924        3.83063109913521
H            2.49413736422425       10.78131487655662        3.94026978528521
C           -1.45987829572427       12.13769926473587        8.75928202233152
H           -0.83649523855421       12.13795941148782        9.65444061183466
C           -1.59237697343517       13.55940306247572        8.20286363325439
H           -2.46573350276529       11.78192142580163        8.99497747708614
C            5.34602568393507       13.35496904892543        7.77062403756022
H            6.38632596518339       13.15702373277008        7.49589917752052
H            4.69255121290372       12.89930890137680        7.02658769843665
C            5.14108622668056       14.88204168392795        7.82140563335269
C            6.12441696221718       12.09254763196448       12.43326885263471
C            5.77538182798645       13.36337555194770       13.23332892232030
H            5.81416200772889       11.19090908370448       12.96030848734036
H            7.20662471256880       12.05780765849739       12.27993034845280
C           -0.56239374867509        9.99945371878441       12.65708875704923
C           -0.96131111066137       10.84130830691396       13.87192932332454
H           -0.15943512237125       10.65453699126956       11.88404725306031
H           -1.46214315874573        9.49702249590823       12.28769163993681
C            0.80365835424538        5.54705826059289       13.75958958717295
H           -0.24420379987003        5.53503448607916       14.07085312213355
H            0.91251616303040        5.01357617907403       12.81007599377573
C            1.63242703720755        4.79406852219252       14.80490614205659
H            7.38053490707355        4.55626117170786        3.58044438692409
H            7.15728023385923        6.16520293138376        2.83306634254820
O            5.45061334074703        5.01115195942278        2.99642247107048
C            5.55898574803912        4.45696121665003        1.70246344070682
H            6.15785879441335        3.53663340816538        1.72988171397233
H            6.05095263316092        5.16735838042221        1.02421849966134
C            4.17051111917038        4.13493811013070        1.15512391939692
H            3.66170765350751        3.41001729439726        1.80555771278050
O            4.36661378049664        3.59965483862835       -0.13520088631436
H            3.56115622129692        5.04839890582343        1.11517330557915
C            3.18244551503532        3.40384699116254       -0.88363002666939
H            2.50600551242240        2.69442972405090       -0.38697788791667
C            3.62433348762425        2.86589520290956       -2.24181469434242
H            2.64835074843488        4.35597948738858       -1.01346720850551
H            4.11210638711266        1.89138290343387       -2.10265484932581
H            4.35978070866487        3.56045301060385       -2.67179773018072
O            2.50877870061814        2.74303463752324       -3.09490318988363
C            2.86531781263412        2.28666304534858       -4.38801310002085
H            3.32153712684130        1.29301055430342       -4.33575367000028
H            3.56713674304877        2.97911264611444       -4.86227995744134
H            1.94252236982664        2.24696218781635       -4.96156278851261
H            5.78060212476331       10.13110998917174        1.91376374989236
O            4.95207827348517       12.02465560253544        2.00888518399190
H            4.03898165309582       10.18928292712908        2.28429654602993
C            4.66825241615262       12.12419646628776        0.62783133514810
H            5.39795645873048       11.54868638887993        0.04282273571237
C            4.72794425220102       13.59514527264449        0.22897174699485
H            3.66521403810313       11.73093302846144        0.41060162045207
H            5.75721294598408       13.96532950825520        0.32675827291138
H            4.08537354663034       14.17711123134230        0.90400851725725
O            4.28144651681290       13.70574330658676       -1.10463831429464
C            4.39410516672893       15.02145919215305       -1.62072643682836
H            5.45105048095779       15.30389345037421       -1.71799200233826
H            3.90505964074631       15.74617026386143       -0.95803327595751
C            3.71523388362981       15.04713073781083       -2.98645073046159
H            4.27550865749305       14.42019643679122       -3.69432970742456
O            3.66268931462738       16.38109855176794       -3.43969761352558
H            2.70151329990626       14.63199599055759       -2.88866735275009
C            3.08738387533516       16.49993858376973       -4.72621219385419
H            3.66647472611282       15.93758561222423       -5.46584320091840
H            3.10640127056672       17.55899292059694       -4.96861419826295
H            2.05429700097356       16.13520381464633       -4.72732146244160
O            5.29008653842508       15.49770725016240        6.56403040693348
H            5.91635124812045       15.31400645156448        8.45837438492478
H            4.15681786046051       15.11269315027290        8.25100089115300
C            4.14860796351048       15.42777198955545        5.72663484482292
H            3.29734772155714       15.93125042332418        6.20676498124685
H            3.86460728237746       14.39317251264933        5.50430743172084
C            4.48910897627700       16.14824289353320        4.42649695942418
H            4.83816758276570       17.16443873959015        4.65510034958323
O            3.32801224275470       16.19165089962006        3.62357545205864
H            5.29476730527878       15.60959433466092        3.90965544321863
C            3.54346556450716       16.85361202108438        2.39421466991024
H            3.79204398950033       17.91007179364120        2.56223694849150
C            2.27387479324634       16.73939070427504        1.55589167678944
H            4.37667799186095       16.38885523675068        1.84843757005751
H            1.47047977048250       17.34149832872984        2.00099326287116
H            1.94738615845178       15.68857123578296        1.54256340848350
O            2.57021912840087       17.18647966725572        0.25182071355026
C            1.45703000510801       17.14915400762124       -0.62146490353245
H            0.67221623261372       17.83182891969661       -0.28145549895680
H            1.04874785789287       16.13481994209597       -0.68645220982168
H            1.83395944610680       17.45989354646462       -1.59284616329795
H            6.24432604174897       14.21862235825924       12.74085212643739
O            6.27831868585208       13.36249643102241       14.54696642950472
H            4.68510500544764       13.50608178736023       13.23783275480994
C            5.53687034865568       12.59477414158907       15.47479380022053
H            4.47528796919210       12.88083181098454       15.44249559030918
C            6.10697025147588       12.88761731325792       16.85904297468619
H            5.61451934762111       11.51943645472549       15.26863299378854
H            6.05242064339968       13.96723948470168       17.05318020471831
H            7.15594017708135       12.57002766054389       16.88856637943583
O            5.35278207003392       12.17512017908924       17.82134590866036
C            5.83415440257671       12.37390937409432       19.13818364786353
H            5.66429445006060       13.41254687843559       19.45454469199895
H            6.91098105110816       12.17033316521307       19.18172034566981
C            5.09162108439228       11.42978946148699       20.07846818354349
H            4.00619995655670       11.56209198548060       19.95430361581289
O            5.47733318609710       11.73353425983418       21.40138967431999
H            5.34669613116793       10.38945204876588       19.83800859255292
C            4.93739379520676       10.83156500332842       22.34720112776790
H            3.84284050091433       10.85667905124019       22.32871069566140
H            5.30044179095690       11.16048738615995       23.31704846325361
H            5.27719165303898        9.81045806954695       22.14499193043767
H            9.36444494166143        7.61880294407589       12.10214120702751
H            8.19249326824763        7.02594229454888       13.31121793618835
O            8.88986728746973        8.96466436113512       13.50623293853730
C            8.13546886812396        9.13806583490999       14.69219428387809
H            7.99718445358184        8.16038775739314       15.17361346256031
H            7.14846408327378        9.56999646145942       14.48461626213505
C            8.94141627537734       10.06792407698087       15.60588369756539
H            9.88480270903738        9.56914877522643       15.86588066866159
O            8.26452977451122       10.47866224655087       16.77024864486954
H            9.16227801117447       10.98749928385593       15.06058555655470
C            7.94881607267467        9.46263453203066       17.70373279516265
H            8.66085636161392        8.63424254458343       17.63180029292881
C            6.50783444282576        8.95583575327946       17.56187269353201
H            8.03665315873457        9.91642646455774       18.69556676292823
H            6.40354608756008        8.24968527745168       16.72644705210281
H            5.84268188448822        9.80907710934061       17.36465953180032
O            6.14981221350813        8.32227337706931       18.77362409749819
C            4.90240407297363        7.66067571624065       18.70275177305372
H            4.95869299465773        6.81430899344802       18.00880628236017
H            4.11141701125370        8.33759207352176       18.36351319099662
H            4.69133430623182        7.30341724871214       19.70748148966239
H            8.08332305274672        2.21073790725919        9.23866187011704
H            6.64064790455697        2.67262477605791       10.18451144437146
O            8.48108671405108        3.22769139360675       10.92868304921570
C            7.84293667401651        3.57945437972085       12.13848329109335
H            7.35493900768868        2.69843840217063       12.58042009819380
H            7.07969913806891        4.35244927818804       11.99355308028982
C            8.90490383947542        4.12371735104326       13.08987194826723
H            9.60034163954493        3.32238458071507       13.36878951526360
O            8.25240839215981        4.63406135859537       14.23696870165475
H            9.46942516093714        4.91180861433877       12.57263272685515
C            9.15154496304813        5.04089329076193       15.25311132063845
H            9.88446227450532        4.24957409120809       15.45450521593168
C            8.35001935761423        5.32143142356579       16.52282314474069
H            9.69951776316182        5.94447113776452       14.95099787587860
H            7.89061426679980        4.38842617265291       16.87609509269340
H            7.54038145249692        6.03401788683321       16.30160910573802
O            9.22700561283005        5.84387878612345       17.49268717313369
C            8.67077350992449        5.87927010757335       18.79741548395151
H            8.36901031007633        4.87610331308923       19.11342745711145
H            7.80940352746253        6.55235409502651       18.84737128238098
H            9.46133705482707        6.24907319286839       19.44457051645571
O           -0.25485315276948        3.58709771732768        3.33620410960231
H           -0.40735510339322        2.46298993791321        5.06839388221205
H            1.20785501136127        3.13075993626872        4.72484363023074
C            0.14278916670675        2.56291029587825        2.44883606354494
H           -0.17822082231439        1.58173619652606        2.82277298271474
H            1.23702634430926        2.55121218294969        2.34068652061056
C           -0.50178027317564        2.83207287150244        1.09211799210959
H           -1.58999643749843        2.72774888721313        1.18424347465111
O            0.01079618602216        1.90116387195087        0.16172131971320
H           -0.27576974610591        3.86134153448761        0.78162728321964
C           -0.81127020127987        1.74335791677898       -0.98261832329377
H           -1.77623262719929        1.30119387625581       -0.69768054013418
C           -0.09298815187452        0.81289493146886       -1.95302158516242
H           -1.00493765996219        2.70685259310365       -1.46735125595083
H            0.16183108286670       -0.12299329291665       -1.43426766917554
H            0.83479494982811        1.28993574585846       -2.29572973949000
O           -0.95209339526028        0.55513793113043       -3.04258769182360
C           -0.37577247647019       -0.31562639236729       -3.99562396819582
H           -0.15873528035438       -1.29231859511793       -3.54986023607217
H            0.54959450467033        0.10722121038074       -4.39915960112300
H           -1.11220648156003       -0.42583376801742       -4.78709445797712
H            0.00965505696699        1.45774125198265        9.46249478089311
O            0.19433087625457        1.33872051940345       11.44724402343739
H            1.70364064919321        1.46874056418841       10.03565602522404
C            1.09009900805061        1.41796880700538       12.54534185973215
H            1.91493538821602        0.70662388106095       12.41107669246204
C            0.28942904279857        1.08763076726494       13.80365897388433
H            1.51617128349023        2.42137806267295       12.65404867174868
H            0.09967759325085        0.00875556615609       13.86595224735831
H           -0.67814445598029        1.60527367043469       13.74326689475489
O            1.01492494202543        1.52952988547894       14.93270999102470
C            0.34202119340904        1.27938020862588       16.15235234826678
H            0.26338000395870        0.19890813735394       16.33313894115993
H           -0.67135513472838        1.70098128397819       16.12626651213920
C            1.13481740862919        1.93282037625887       17.27983250932097
H            2.16590710966402        1.55139406850285       17.26892579653654
O            0.50430675983587        1.61912998676278       18.50400782768177
H            1.16464388756420        3.02073189020103       17.12951966860836
C            1.10005097492816        2.27425933850117       19.60632572552033
H            2.14608079109196        1.97130417181806       19.72036467328313
H            0.52845154641804        1.97307886447998       20.48001585140705
H            1.05325394561871        3.36102864940605       19.48169888121514
H            2.69051981011577        4.80084716278444       14.52726900982325
H            1.29571432281148        3.75324146385067       14.79851599995582
O            1.46811045288843        5.22531352007105       16.13794095229728
C            2.18577172762727        6.38568924170638       16.51501057654364
H            2.80085452578674        6.76101028770334       15.69278204643568
H            2.84039166273711        6.11231561707715       17.34921235538189
C            1.25311325285419        7.51986656779812       16.94843560568275
H            0.36702808503309        7.54177970103484       16.30041240767230
O            1.97725231897580        8.73373483465502       16.84112270349474
H            0.91657000639895        7.37099010417080       17.98228518992576
C            1.25829765356083        9.83718281541233       17.34917060523449
H            0.27294574768121        9.90235000880722       16.86737988851165
C            2.05364208633650       11.11331888441479       17.09028894163758
H            1.10643778329730        9.72595621270049       18.43270348544037
H            1.97458611594003       11.39455514959542       16.03072156841064
H            3.11427075264419       10.94467032535567       17.32607755075160
O            1.52322540436297       12.12666358323593       17.91820363652155
C            2.18366052568502       13.37032257819493       17.76252301787296
H            1.99636907995614       13.78707794240951       16.76738460527654
H            3.25983241970345       13.25145731313456       17.90948586029886
H            1.76762334096695       14.02902621010937       18.52070666286387
O            0.07860633537692       11.74087971663294       14.22055602541286
H           -1.18538193050945       10.17704755685353       14.71411996488653
H           -1.86289588362387       11.39999658593787       13.60388483266851
C           -0.35372472188022       13.02603202015112       14.61047674853789
H           -1.01174571774545       13.45972734880657       13.84751834090625
H            0.55017484381263       13.63495047813961       14.67499858304015
C           -1.05403686758458       13.03965656629037       15.97366737582117
H           -2.04405708113470       12.56474109746105       15.90975771115707
O           -1.18739704553192       14.38891517371838       16.37202983652895
H           -0.44965026400453       12.48597901609829       16.70494287068193
C           -1.69920143711007       14.52310960643169       17.68258243659039
H           -2.71693592973792       14.11348910428473       17.74473281283646
C           -1.72322718320243       16.00698201888748       18.03202603689829
H           -1.06615536299641       13.98143185777137       18.39832261174746
H           -2.35379315232724       16.54276100949483       17.30843103983353
H           -0.70425484593487       16.41388197294418       17.96810663269700
O           -2.23517673725899       16.14873523819064       19.33829400069866
C           -2.29716772205244       17.49716050352960       19.76100087250395
H           -2.95474368176292       18.08024230904539       19.10803746657963
H           -1.30070597171526       17.95061399367401       19.76424014970770
H           -2.69921437369986       17.47710558948650       20.77026532339877
O           -2.35047854567143        8.62360028475203        2.94646500996716
H           -1.12879474579629       10.20150127145183        3.49261710858444
H           -2.75108740363626       10.10859207488648        4.23048386524939
C           -1.35238573659073        8.08464867068526        2.09548562677116
H           -0.58261017928652        7.54380987549383        2.65616623155024
H           -0.86983862729986        8.89056777321807        1.52408565533189
C           -2.05319532819647        7.13843591956706        1.12588516598425
H           -2.40303046598288        6.24730893234846        1.66364162416398
O           -1.14744700938406        6.77604115023471        0.10401879190054
H           -2.92467687424467        7.65440371314227        0.69951340153600
C           -1.75489237336697        5.97311283489232       -0.88822367403618
H           -2.15594855072003        5.05097602119032       -0.44527518627005
C           -0.70858474450008        5.60988605419156       -1.93716066251365
H           -2.58506342799514        6.51295303090685       -1.36360065317128
H            0.17537359844754        5.18170606345758       -1.44057818619439
H           -0.39310715763879        6.51083944585178       -2.48099004591498
O           -1.28590082802354        4.67203972161519       -2.81534311349684
C           -0.41750276509446        4.28436423890347       -3.86608287953174
H            0.51527541320265        3.87333880771823       -3.46807965868587
H           -0.19386772752912        5.13728076617413       -4.51488545076593
H           -0.95316156283153        3.51871645622385       -4.42132068260644
O           -2.75667528135276       13.62551594543255        7.40563782531641
H           -0.71519372956655       13.82172854019355        7.59437822178560
H           -1.67317085466234       14.27059818008147        9.03744450718361
C           -2.94562886646815       14.88662874062676        6.80239620622801
H           -2.10988536346240       15.12589761548613        6.12963842852650
H           -3.01174382290940       15.67430858383528        7.56610453500016
C           -4.24589344040704       14.83787108279559        6.00764749046689
H           -4.17779530648891       14.05197120643375        5.24337684688676
O           -4.45018865002874       16.10301636411648        5.41528336315523
H           -5.07525398097947       14.58604512866482        6.68202458940856
C           -5.64787623332706       16.17361492782593        4.66732314154113
H           -5.63280171111925       15.44786921163814        3.84294633871985
C           -5.77359490125261       17.58661067722703        4.10753558466231
H           -6.51459494689097       15.95117707571492        5.30430843029782
H           -4.90636192638074       17.80541138462361        3.46889863879452
H           -5.78158122991195       18.30778006927493        4.93687098574883
O           -6.97084158833160       17.66740514852564        3.36667378317840
C           -7.18415356503674       18.94839674865375        2.80535052398007
H           -6.37447187767247       19.21180403200767        2.11715353046615
H           -7.25181852363690       19.71037028123787        3.58852271087595
H           -8.12492296420070       18.88627144996631        2.26527234677063
Cl           2.95738326711224        8.27317471731151        8.84227938488616
