265

O            0.71766213539330        9.01400505648238       -1.07709412156907
O            0.16981044429554        3.88415552515429       -4.07456818876878
O            1.76877746678288        4.44367725043043        1.68895018377247
O           -0.01796093276678        8.87800663622924        5.34605897422537
O            5.62206715161886        6.54987306847573        4.86024323082382
O            6.84213013649118        0.92273974074409        3.25437152792224
N            1.86801077698837        7.65304400065402       -2.53116169645654
N            0.94952965573756        6.75642183281765       -0.72436785554352
N            1.69673891542171        5.57630368381045       -3.73976077753092
N            0.60849081077436        4.73149978331151       -1.98803055945215
N            1.27428339962490        6.68974740620981        1.68154134404666
N            2.61358273053105        5.89415270693623        3.25903603497976
N            0.53641384584591        8.46927507602642        3.15176765939635
N            1.80842024768635        7.61239820376317        4.76581891199787
N            4.77485014501169        4.82705992729514        3.59533641690437
N            6.90377172958829        5.39228570559616        3.34506993290613
N            5.25847034831387        2.55982255408465        2.94055871865440
N            7.40995372255108        3.09712201483283        2.77857618882860
C            1.14349176371691        7.92030471730145       -1.40563565923449
C            0.76818400853777        4.64714656471415       -3.33836826047758
C            2.26914193153867        6.25908934416930       -2.61134857493550
H            3.36289510484435        6.16847104109985       -2.61045463973071
C            1.56193397994532        5.62758706058144       -1.38685188479664
H            2.21085768050874        5.08428111869475       -0.68964418323289
C            1.88038407960072        5.56402957108630        2.15670618619554
C            0.70135551974919        8.36710301743331        4.50685224712234
C            1.63334363105791        7.87092483683150        2.44085366021867
H            2.11299877901838        8.60845751271949        1.78501898892592
C            2.53929347201947        7.30558261190522        3.56435994487329
H            3.54819151792880        7.73114077019235        3.61007159658806
C            5.75107044014991        5.68529493160819        4.01094609166698
C            6.53713679916061        2.07704991863615        3.01247459091755
C            5.23225885328702        3.94344320789059        2.54112588876322
H            4.62429846539427        4.07979795441623        1.63862542313728
C            6.73306739203824        4.30999691906531        2.40085863784929
H            7.04808424947873        4.63136802340801        1.39914617355738
C            2.42846102109203        5.37512739595832       -4.98553816442536
H            2.82013328447788        6.33436498181129       -5.32480836857028
H            1.69746613945855        4.99326662021068       -5.70155178574770
C            3.56158941815400        4.39539712360745       -4.81185855020924
C            4.85307061075661        4.85830932811003       -4.59326238486029
H            5.03137729798935        5.92422658662537       -4.58552990050324
C            5.89632743510199        3.96670743508748       -4.40723005568665
H            6.89873698228761        4.33608307111215       -4.24250208509295
C            5.65480281921067        2.60336907278749       -4.43957841948741
H            6.46936393157680        1.90798848153721       -4.29876991117046
C            4.36876493940157        2.13478988702211       -4.65644227198450
H            4.17994185347503        1.07188224070066       -4.68520564348921
C            3.32600406598782        3.02612076376868       -4.83927129188789
H            2.32071541801961        2.66786893408025       -5.00528749861025
C           -0.08471194390131        3.70529737420392       -1.23460974739738
H            0.53882628726652        3.43241943272276       -0.37844888576993
H           -0.17801525715806        2.84320254873157       -1.90482221913713
C           -1.46102186933708        4.11962653584069       -0.78018920819944
C           -1.86773673069692        3.88725141155286        0.52820814785524
H           -1.17625595348142        3.43551313533781        1.22559945468333
C           -3.14605270371340        4.22988176971324        0.93544131774627
H           -3.45266882723677        4.04304627643172        1.95381134333859
C           -4.02663968541788        4.81130909652366        0.03968934610713
H           -5.02425065121940        5.07437070509201        0.35652220493023
C           -3.62536092833401        5.05043280833298       -1.26427089347843
H           -4.30978717761325        5.50142514950469       -1.96741970767168
C           -2.34987118208889        4.70439698170153       -1.67354646045543
H           -2.03492983764236        4.87368295598227       -2.69262623251497
C           -0.30837412432478        9.50325432608692        2.57352259847530
H            0.20857604777139        9.91582143892674        1.70305164673487
H           -0.41802955981288       10.28405793587969        3.33582072840646
C           -1.68107582587975        9.01719451668983        2.18035200147712
C           -2.52007272441245        8.45219818417093        3.13328622370973
H           -2.16708856466010        8.35148180761837        4.14879385802617
C           -3.79588241599765        8.04502097713218        2.78638538301055
H           -4.44182169683239        7.61124659926837        3.53524200134258
C           -4.24698481246342        8.20329339126739        1.48614609451485
H           -5.24654775813671        7.89615471228366        1.21842279394490
C           -3.41550266715170        8.76273581116082        0.53167151876877
H           -3.76039188794009        8.88889744922698       -0.48362538453402
C           -2.13625226737742        9.16630933870951        0.87585002906828
H           -1.48439337838761        9.59979534627850        0.13062586871283
C            2.40214688209005        7.56396276499015        6.08936786099214
H            1.97641870966123        8.40295391187993        6.65222520711998
H            3.48146954502073        7.70606698717779        5.99020414189055
C            2.11031474762473        6.28003107894965        6.82409114576589
C            0.81541481481789        5.77872776539295        6.87396556030286
H            0.02241817254310        6.32012536502980        6.37992977327523
C            0.54578085892277        4.60550969712367        7.55618594623248
H           -0.46418807893887        4.22433745201918        7.58889263396116
C            1.56623189456975        3.92602890973201        8.20173912336783
H            1.35431391291473        3.01203331986482        8.73629600787857
C            2.85773052144239        4.42389133583512        8.16240527108003
H            3.65717873328189        3.89972107990582        8.66476266899700
C            3.12999972771391        5.59493664521277        7.47474600491599
H            4.13902097045043        5.98046341679233        7.43501279089225
C            4.14574545132721        1.64772920038947        2.79016004756104
H            3.33111766009034        1.94100962282006        3.45601025080043
H            4.53097752338885        0.67630988447255        3.12365459784409
C            3.63389239485544        1.52220943214055        1.37666809193647
C            2.31313965022419        1.14975338968917        1.16054556152870
H            1.66318794718091        0.98485545120765        2.00685879433969
C            1.82913806317327        0.98794513892924       -0.12468676587570
H            0.80311890791532        0.68898138599003       -0.27790775351567
C            2.65531244081904        1.21672166024856       -1.21267263444557
H            2.27659834299395        1.10857180379738       -2.21750580347322
C            3.97155607906690        1.59065152077926       -1.00674934474130
H            4.62019625233620        1.77757906362692       -1.84950328038219
C            4.46089832256500        1.73005933545831        0.28098579509656
H            5.49663616190096        2.00286020541027        0.43118008096072
C            8.82465943372659        2.85556604973722        2.55793994623193
H            9.16156941375275        3.51112683032747        1.75102768427694
H            8.91778110708761        1.80895476336359        2.24431205788766
C            9.66339590481988        3.07331731431186        3.79345272124155
C           10.82518447114141        3.83385592668780        3.72918811275147
H           11.11512988103888        4.28077053591536        2.78922635554575
C           11.60006728082892        4.02583582004049        4.86098522335546
H           12.49963146288539        4.61981793762994        4.79990092747384
C           11.21915267317423        3.46158241220589        6.06654985587059
H           11.82077926560331        3.61343281674693        6.95035122340353
C           10.06519677084481        2.69819570579587        6.13561700071381
H            9.76661398138746        2.24948151868289        7.07122306648543
C            9.29264826537440        2.50163315086366        5.00437910114987
H            8.40146808268212        1.89461795577108        5.04920387038871
C            2.16266284035693        8.65237189112477       -3.52798750916936
H            1.34661041960063        9.37870658540330       -3.50756273048041
H            2.21701662163607        8.17015328629883       -4.50482367591736
C            0.34213456062275        6.67688868792816        0.57835948931966
H           -0.32463037863756        7.53421056517771        0.67967745749494
H           -0.22485097521287        5.74474542927794        0.63381707934184
C            3.39689931611017        4.94046795815741        4.00471005765447
H            3.38823831658128        5.23384547684831        5.05636352266188
H            2.92059751527068        3.96888064621354        3.86839453143697
O            9.59115856733925        5.74340428013297        1.08489334472568
O           10.13101415673351       10.86930346471486        4.08522650963759
O            8.53702091274303       10.30979414345258       -1.68686366041352
O           10.33936304725052        5.87486972962779       -5.33607588994673
O            4.68359803890911        8.19950805050283       -4.85708190538774
O            3.48108698403450       13.82516626556211       -3.23530135757578
N            8.43516178523369        7.10077076212424        2.53780124309014
N            9.35311933356075        8.00015125225953        0.73191852420012
N            8.60533325035098        9.17662393935273        3.74839689091519
N            9.69289757089532       10.02401480582648        1.99763719563601
N            9.03660719584312        8.06489281250585       -1.67511736981121
N            7.69953104501996        8.85509153464736       -3.25711410283565
N            9.78248130004036        6.28663225546770       -3.14294371113815
N            8.50797857087744        7.13490432981519       -4.75952815770479
N            5.53613529205110        9.91799671056989       -3.58995120982008
N            3.40696911994034        9.35543361456798       -3.33612995129543
N            5.06137862056476       12.18380970424199       -2.92407459080923
N            2.90870031821206       11.65092733185920       -2.76491487543843
C            9.16170690527390        6.83588561723259        1.41306270778358
C            9.53317054039266       10.10674162653666        3.34816977568934
C            8.03314651968679        8.49452073870315        2.61949846381544
H            6.93924390754290        8.58450011543816        2.61863696029931
C            8.74000252480667        9.12790245027552        1.39559019927349
H            8.09068408690502        9.67155677348287        0.69887082656407
C            8.42915319365231        9.18857044672932       -2.15336447616027
C            9.61775113522367        6.38500551778335       -4.49838865144006
C            8.68257345339250        6.88190678183696       -2.43389650906456
H            8.20485175935846        6.14321239631002       -1.77807296411198
C            7.77615319291146        7.44306056796902       -3.55909650027036
H            6.76800068333896        7.01562302145473       -3.60439696990817
C            4.55772459871302        9.06216729683116       -4.00539472952386
C            3.78354141426971       12.66980209782539       -2.99562435436982
C            5.08342244526757       10.79835742098886       -2.53084714883599
H            5.69266783349783       10.65605578368849       -1.63020336848454
C            3.58193525693540       10.43529608545378       -2.39005380065598
H            3.26685102038209       10.11293474717924       -1.38858711050771
C            7.87718871477870        9.37266652814156        4.99707361198111
H            7.48671625759707        8.41219081646589        5.33371123066936
H            8.61032525634305        9.75205262801727        5.71228018519462
C            6.74307186382205       10.35274545729553        4.83169691049578
C            5.45187463181961        9.88997975582092        4.61116094128449
H            5.27492443733439        8.82402354564897        4.59509476197710
C            4.40709120751898       10.78166129864092        4.43438464039912
H            3.40485395400363       10.41229072025077        4.26833402237845
C            4.64684896873114       12.14498399372709        4.47798711617849
H            3.83101996598453       12.84046474582561        4.34450599870776
C            5.93260457296852       12.61341299383039        4.69677296742186
H            6.11964190930859       13.67641203739417        4.73423616751231
C            6.97689101481459       11.72201771252282        4.87044439518979
H            7.98183533925238       12.08041042904060        5.03800674029244
C           10.38475926201109       11.05221153417135        1.24573798394633
H            9.76125669957958       11.32519242221321        0.38950697263422
H           10.47600086356944       11.91386078167524        1.91690487624265
C           11.76215431114018       10.64118644345411        0.79165868420791
C           12.16937431479307       10.87678617793570       -0.51600950000831
H           11.47744914538103       11.32838465428138       -1.21307715408977
C           13.44866988850552       10.53753775066371       -0.92294121397790
H           13.75565863958296       10.72688122309672       -1.94072458198634
C           14.32983294313985        9.95636096787421       -0.02757696724781
H           15.32822053649073        9.69600658222950       -0.34406901958761
C           13.92810138970625        9.71406162712360        1.27564873641223
H           14.61291770633013        9.26339602188870        1.97859344205593
C           12.65158384802641       10.05669961056125        1.68461789353058
H           12.33617808050605        9.88509637768166        2.70317486103480
C           10.62958760359413        5.25596996024131       -2.56219510029178
H           10.11255116404199        4.84263777428283       -1.69210709382278
H           10.74312459419858        4.47484423259439       -3.32346657807628
C           12.00004162215292        5.74690094831830       -2.16722742025385
C           12.83839436477357        6.31437759142261       -3.11925765151171
H           12.48637524210079        6.41371807716109       -4.13521888574066
C           14.11253256656843        6.72553517916169       -2.77093132938383
H           14.75808429464777        7.16111387503793       -3.51912214407169
C           14.56256231976866        6.56885337451797       -1.47013508618528
H           15.56098707372470        6.87895478698986       -1.20138329825334
C           13.73164301274175        6.00709919429313       -0.51653429063869
H           14.07590112397679        5.88204694841639        0.49912788811745
C           12.45403251721723        5.59955834159863       -0.86213382083647
H           11.80291749701636        5.16384228271421       -0.11758482515779
C            7.91463914708142        7.17906315286082       -6.08332459141301
H            8.34366143166191        6.34053167578403       -6.64458590684305
H            6.83582206971843        7.03299601228863       -5.98442478399118
C            8.20206239988437        8.46269477919089       -6.82026927456425
C            9.49509397250996        8.96875077214909       -6.87027621263984
H           10.28977935356538        8.43130669639822       -6.37460769961100
C            9.76077949216450       10.14163256699612       -7.55462147556721
H           10.76928986335526       10.52654208531255       -7.58741564373965
C            8.73822468108619       10.81596618859202       -8.20224994138730
H            8.94698703831803       11.72962966244425       -8.73852231739352
C            7.44858050841212       10.31332859984600       -8.16277963942262
H            6.64744194383348       10.83333519084076       -8.66673910810144
C            7.18024095182440        9.14264161527490       -7.47297010315515
H            6.17264568918948        8.75333744959755       -7.43307344702186
C            6.17482816093968       13.09302735630890       -2.76261258563103
H            6.99591122508310       12.79619335635573       -3.41899006137776
H            5.79637057338089       14.06513343538441       -3.10116214080316
C            6.67350527664033       13.21937271185619       -1.34435974351803
C            7.98901841349370       13.60439431631899       -1.11794590215658
H            8.64328505372305       13.77771297942902       -1.95917951578319
C            8.46243882307822       13.76789369648974        0.17094009103047
H            9.48451491996974       14.07613563998221        0.33225778098196
C            7.63086541004960       13.52870974698668        1.25260196027374
H            8.00126007510738       13.63827949608008        2.26044327550135
C            6.31989088890430       13.14242916804335        1.03647513224591
H            5.66708184508682       12.94764883016856        1.87430268978057
C            5.84095895057711       13.00091484470225       -0.25505736981472
H            4.80906420331313       12.71818515074258       -0.41272924724194
C            1.49298500232509       11.89108456342720       -2.55526597070146
H            1.15103403636907       11.23892171377105       -1.74778283421360
H            1.39625559661906       12.93898733498965       -2.24680584226816
C            0.66054119091066       11.66832171779447       -3.79433271633907
C           -0.53232326226125       10.95824704945738       -3.71892949410146
H           -0.84502632271369       10.54780182564975       -2.76966014280244
C           -1.30755249384050       10.76868898354852       -4.85063836668167
H           -2.23232425292012       10.21556554502009       -4.77982237887482
C           -0.89564728682982       11.28338693471075       -6.06831114041804
H           -1.49859300307864       11.13379054950037       -6.95157835445405
C            0.29182397049233       11.99222840160862       -6.14966790361203
H            0.61599420626501       12.40002084615907       -7.09574595851850
C            1.06400461613780       12.18809082290017       -5.01812333326841
H            1.98137862764235       12.75441626751106       -5.07409361212904
C            8.14526785477020        6.10047689870352        3.53538140402570
H            8.96368697622638        5.37725803320684        3.51470468093622
H            8.08987935174902        6.58312105860228        4.51208613128390
C            9.96485469518423        8.08120569700014       -0.56874636932520
H           10.63462356499322        7.22600638727175       -0.66746604810235
H           10.52887792441037        9.01525872630756       -0.62268145098600
C            6.91253035793568        9.80467561647717       -4.00405480875356
H            6.91714107504431        9.50623939409003       -5.05439839636638
H            7.38801293493202       10.77755728664308       -3.87496838134970
F            6.87088059900265        6.59945297873393        0.03824492827203
F            5.85907183325785        9.11444114442083        0.18005960128797
F            5.03213442752229        7.24719261610883        1.87572095282122
Sb           5.15517299157225        7.36705423627015        0.00030604814199
F            5.27890775919764        7.48959527294490       -1.87494564568553
F            4.45145498652144        5.61975190742611       -0.17916525721969
F            3.43932007097723        8.13452216180127       -0.03740445497950
