189

B           39.49112205857702       19.58217601735027       10.55893986791508
S           34.17348321472092       15.70495782770919        8.66759023630557
S           32.87994709084755       20.80980330135198       11.92823847974142
N           35.79265429111376       15.41993780294118       10.78181786288088
N           34.77471795903715       17.39639908962135       10.64187451301559
N           34.21131035892734       21.82704267262492        9.83949981585916
N           34.23102299775510       19.60381843941636        9.96586412296418
C           34.95053729238372       16.18948802131020       10.04989157070359
C           35.31019810984181       17.31701924840586       11.99304130064003
H           34.50434343328322       16.93021735979567       12.64094264554639
C           36.38916222803554       16.25259631725464       11.82319525174602
H           37.30061557741792       16.71781545861555       11.41477298524845
C           36.71642361168794       15.67980432015658       13.18819200449157
H           37.45340163359161       14.87921083721369       13.12555056670459
H           35.81551609315103       15.28066185113095       13.65732769482519
C           37.28380760697762       16.85049403114677       14.00194513501076
H           37.50496871960625       16.51324192720396       15.01545676796847
H           38.22130497551117       17.16931324438149       13.54144042149337
C           36.33920727834131       18.05574873702944       14.06483495946611
H           35.44716873517145       17.79231511708871       14.63779797931081
H           36.84356352087404       18.87102936124554       14.58426112857899
C           35.90451305233704       18.53295316631834       12.67269852550881
H           36.76319778517647       18.90289565650377       12.11000606817034
H           35.17166507177856       19.33536875340844       12.76265735892583
C           33.71937191338188       18.30490215709469       10.29702812494568
H           33.18397689614878       17.88177645136911        9.43613251845207
H           33.03500302291281       18.42420485155434       11.14806983088651
C           33.81233714900781       20.74925028916012       10.55814409770310
C           34.69009504811550       19.93239090644330        8.62377340399958
H           33.80793582630712       19.90284482996294        7.96093925349273
C           35.14414242491904       21.37651695624889        8.81068528157365
H           36.16160619763617       21.38806739637902        9.23495850500505
C           35.19045951114332       22.04730126145216        7.45203854225485
H           35.46405558426340       23.09952135693950        7.52908898387907
H           34.21714874009987       21.98127728014351        6.96317805081140
C           36.25659936990409       21.28521123430631        6.65408498936251
H           37.22423474782770       21.44533495504094        7.13451589264454
H           36.31146427614907       21.69235009559510        5.64357348745008
C           35.98683395493025       19.77806683190719        6.57634143178520
H           35.08591188359303       19.60106499332228        5.98441753142610
H           36.82041959893407       19.29492117596049        6.06555593766929
C           35.79424097693723       19.13740943196177        7.95805736749591
H           35.51484587262888       18.08902482468773        7.84849754074630
H           36.71265986433005       19.19169178573844        8.54527700204631
C           36.35302828401810       14.17965427027833       10.31616186547346
H           35.70948023374271       13.82721950526116        9.50234162774002
H           36.35640063860856       13.45511638309643       11.13823256515476
S           43.83082373436385       14.33240133231927        8.68418475157735
S           38.74637756520789       13.00814276081446       11.95841564032074
N           44.09213688068586       15.98273343542220       10.77650209457457
N           42.12567776898472       14.94448698424014       10.64535558767073
N           37.70691101419047       14.27480659885966        9.83990177348542
N           39.92931599840017       14.34787628761833        9.97653083181245
C           43.33414394576618       15.12079159167473       10.05572932315770
C           42.19427855277902       15.50353418828301       11.98797219507221
H           42.58257164002707       14.71152538860659       12.65150297290497
C           43.25232246571827       16.58698391505120       11.80653199951302
H           42.78188508863001       17.49053761550418       11.38503439626635
C           43.81931402106938       16.93821079393083       13.16791363433226
H           44.61578235230013       17.67886798666520       13.09618378895141
H           44.22268438889900       16.04697854697670       13.65132569432734
C           42.64286517788526       17.51013810759576       13.97020107304007
H           42.97473178626286       17.74089255698263       14.98333840474994
H           42.32555344524590       18.44368368553920       13.50078060487128
C           41.43937079429953       16.56298269345810       14.03859056052374
H           41.70200801420530       15.68189095434947       14.62853145621969
H           40.61917736109832       17.07276618006384       14.54498847356834
C           40.97039152561596       16.09946536839859       12.65239026498916
H           40.58821582692428       16.94172635972497       12.07218079966309
H           40.17584521813457       15.35958346483076       12.75426847604110
C           41.23585263556530       13.86633143136732       10.32065476394619
H           41.67005260520445       13.32090044926034        9.47159722155767
H           41.12695174687363       13.19732705470185       11.18527703275136
C           38.78989550756278       13.91729070330443       10.57207464441491
C           39.59856408482041       14.77141327367494        8.62398105915202
H           39.65656521194460       13.87750781081449        7.97889334956389
C           38.14244193492934       15.19338560367161        8.79110350107504
H           38.10142430584182       16.21877283456049        9.19023589861184
C           37.48276165143188       15.18839965416285        7.42594316822762
H           36.42341873204916       15.43712580433291        7.48753666780618
H           37.57837693686383       14.20574271720314        6.96100525135374
C           38.22329886947350       16.25584997917793        6.60950525573240
H           38.03270375434413       17.22832102116678        7.06815610195357
H           37.82339913590812       16.27792068807052        5.59481568407028
C           39.73801738909602       16.02714140900100        6.55097835746382
H           39.94654049774795       15.11848266769331        5.98154923997980
H           40.20250850309934       16.86259056328206        6.02598583154288
C           40.36791529620287       15.88463966249804        7.94338762517937
H           41.42621911644359       15.63775659931920        7.85289814827169
H           40.27053166031394       16.81215368956880        8.51017045608179
C           45.33562063754937       16.53746169632891       10.31382370362758
H           45.68760175954130       15.89061854901551        9.50225593278891
H           46.05895862163669       16.54020090115132       11.13707369786779
S           35.60510290122942       25.39922493887039        8.68239373717265
S           40.69731861249872       26.72039901174410       11.95468375494367
N           35.33949087768266       23.75135800365079       10.77631052693527
N           37.30408237969216       24.79359592975243       10.65061064278960
N           41.72266623855723       25.44146207921345        9.83626102056559
N           39.50026796925020       25.38292435358364        9.97833319883430
C           36.09844048698648       24.61339672158811       10.05671727454975
C           37.23398943626980       24.23402964227234       11.99267226928357
H           36.84531649426516       25.02490607830170       12.65704524800156
C           36.17764506201329       23.14949667074227       11.80885779565610
H           36.65111974359904       22.24756050054189       11.38785377466948
C           35.60926586197868       22.79523573596267       13.16882401894348
H           34.81319906338481       22.05439598742926       13.09492705424275
H           35.20465130922109       23.68521748146147       13.65367896599736
C           36.78540622239840       22.22239431239992       13.97118600065919
H           36.45257808761200       21.99022236264809       14.98367015290684
H           37.10404433501683       21.28892763986639       13.50181437001326
C           37.98788197388996       23.17077404627061       14.04138928862115
H           37.72369173845198       24.05159949014605       14.63105060287157
H           38.80694119889750       22.66118920459802       14.54987306645845
C           38.45678530730912       23.63340621081783       12.65494591863499
H           38.82722131582501       22.78774310261831       12.07241417228938
H           39.25528472524979       24.36928833721621       12.75503457137029
C           38.19574747731237       25.86948825943207       10.32526104099983
H           37.76169125128607       26.41683635513807        9.47749360435255
H           38.30861973167666       26.53736195475764       11.19003584774658
C           40.64300728100691       25.81086198204433       10.56929007082297
C           39.82536769073726       24.95445530085573        8.62546502091231
H           39.77421025436110       25.84738857020004        7.97903704871649
C           41.27911374289989       24.52389565380870        8.79103353163062
H           41.31380721391886       23.49828388767418        9.19399883076838
C           41.93730446821031       24.51737923886982        7.42525175882778
H           42.99489701666990       24.26088276600175        7.48653752864995
H           41.84942494659195       25.49920096092243        6.95763090732310
C           41.18744711827917       23.45468830391357        6.61079621530379
H           41.37447054166225       22.47856293151990        7.06350764138632
H           41.58407218533976       23.43280273389589        5.59487145863436
C           39.67400210198203       23.69324088136139        6.55548615078933
H           39.47152577493276       24.60006090557048        5.98107017935400
H           39.20263499484245       22.85868121060161        6.03555354987310
C           39.04408862387837       23.84817325215824        7.94683767563174
H           37.99060869796674       24.11202146059330        7.85064920913605
H           39.11854236234873       22.91997590808969        8.51617396994919
C           34.10558125955178       23.18389499127991       10.30339728845250
H           33.75884437237399       23.82135674864158        9.48209680981224
H           33.37210978291220       23.18281307007709       11.11773698879383
S           45.25437941502369       24.01146812292552        8.64960743404613
S           46.55219314908745       18.92167900285253       11.93338346848963
N           43.64240160925998       24.30124397321980       10.76908434510049
N           44.65762389811523       22.32287828379767       10.62924134420605
N           45.24419582128344       17.89092891033297        9.83640019532337
N           45.20617066167569       20.11474052370462        9.96010949447801
C           44.48451622189685       23.53060147028793       10.03697192016957
C           44.12640594573610       22.40472606126048       11.98215810061991
H           44.93450253769301       22.78865557496566       12.62822990575000
C           43.05115949285771       23.47368273459152       11.81635059021878
H           42.13343376931159       23.01244553372716       11.41543620045691
C           42.73176857358738       24.04927320757442       13.18208237266889
H           41.99894325308099       24.85387086366399       13.12150048952579
H           43.63615676430329       24.44386447276617       13.64766824093229
C           42.16096461248534       22.88215787462832       13.99902971712547
H           41.95370594254154       23.22059927351400       15.01502600610234
H           41.21368245602760       22.57580243122288       13.55003904561674
C           43.09521204927603       21.66783269887005       14.05441523192692
H           43.98850879288501       21.92286143227944       14.62902573918593
H           42.58580716414597       20.85499009833963       14.57296036767611
C           43.53180878786124       21.18908583698431       12.66283828905185
H           42.67924478577093       20.80955635326264       12.09641616038494
H           44.26815758698152       20.39053418227921       12.75758546909487
C           45.71555411550617       21.41547976447628       10.28714598560544
H           46.24993786430119       21.83690142577743        9.42492331516960
H           46.40027653283728       21.30051464505679       11.13840022354068
C           45.62911360140827       18.97263961030799       10.55646522463965
C           44.75603730183867       19.78208770350424        8.61629465146610
H           45.63905189813110       19.82502633698828        7.95571404101826
C           44.31736408255303       18.33283421253205        8.79875644322096
H           43.29670194734233       18.31101282920289        9.21381656606504
C           44.29160724136411       17.66325226518689        7.43877963421002
H           44.03020276723172       16.60763835269250        7.51180615463506
H           45.26855780223747       17.74152431388436        6.95901882225055
C           43.22339378048598       18.41239909123747        6.63107622374653
H           42.25231704230711       18.23318443252901        7.09770627447460
H           43.18742861326849       18.00908964677353        5.61815879503718
C           43.46827824507751       19.92444071792847        6.56334875378273
H           44.36993517640623       20.11983688835494        5.97846571300416
H           42.63005471974258       20.39533967419175        6.04860167585213
C           43.63989096293808       20.56014320330350        7.95013736721919
H           43.89738210033344       21.61497455881373        7.84937104317295
H           42.72054808173002       20.47459958799561        8.53226160767544
C           43.07983540585915       25.54044451627036       10.30263003582807
H           43.71829696578462       25.88959970008539        9.48356208929822
H           43.08099859854196       26.26834663243414       11.12151872981773
F           38.93799181366838       20.73593685012474       10.01570869735113
F           40.82798681746935       19.48341702816511       10.19126819392420
F           38.80025293804132       18.47270613145385       10.08614732283982
F           39.39338126754685       19.63159958168031       11.94006976992894
