165

Cl           0.38550858873500       -0.04233761222734       -1.73004979520962
C           -1.46409873184543        3.54999267230821       -2.04416376375733
C           -3.08703764520030       -1.84949708942823       -1.77194905586657
C            2.25614123951351       -3.64645807979558       -1.43592865551010
C           -0.70604422546611        4.71726367422727       -2.08280491140757
C           -1.34900278121324        5.94479927193328       -2.16077703622993
C           -2.74261318109682        6.00816742849575       -2.19710549157162
C           -3.49576486398920        4.84152643454829       -2.15758180221327
C           -2.85044416375617        3.60695682480721       -2.08130193513825
C           -4.26081968465060       -1.11818516028754       -1.87605361841028
C           -5.50234374051722       -1.74732550326830       -1.91293581997139
C           -5.56427770213637       -3.13530359796902       -1.84336841255730
C           -4.38724485228273       -3.88027152399347       -1.74054768180080
C           -3.16159491760980       -3.23714081384045       -1.70657389807941
C            1.50405500946976       -4.81232207031639       -1.41116822257419
C            2.13977613916644       -6.05128948960692       -1.32746168363999
C            3.52654716115144       -6.10761309850172       -1.26815363161418
C            4.27798603600726       -4.93213320261938       -1.29328958517614
C            3.64579351413450       -3.69974552263442       -1.37859758973505
N           -2.00583224371652       -5.33441127124599       -1.50504675328963
N           -0.80647978303758       -5.76029891357292       -1.42737541546346
C            0.05566597100307       -4.70928489739570       -1.47511114400550
C           -0.70988144888226       -3.56280503482669       -1.59145572010527
N           -1.99086635886319       -3.99727073204480       -1.60593812316968
N           -4.96040978359907        2.26934122759735       -2.08044269292350
N           -5.30615596987206        1.04274465772966       -2.02621012790688
N           -4.20604376259933        0.27946829478810       -1.94642739858428
C           -3.11127265024505        1.07421574043141       -1.95102018432523
C           -3.60410026327729        2.36409599405880       -2.03856545324818
H           -0.97057295424273        2.59528359665317       -1.98662834795993
H           -2.13432163216802       -1.35254194388936       -1.74074273773880
H            1.76107674355440       -2.69292026172502       -1.49807414164005
H           -0.77498761805669        6.85667472400711       -2.19189185578175
H           -4.57300915928043        4.85119627794965       -2.18402549750204
H           -6.38117074403439       -1.13047187062024       -1.99408221524725
H           -4.43442712851418       -4.95492908400681       -1.68727692035405
H            1.52662206608707       -6.93725836198128       -1.31068538252392
H            5.35349857124119       -4.98728263671635       -1.24770880960837
H           -0.42923760670496       -2.53581184954313       -1.66268957813409
H           -2.11009538338294        0.70951626411869       -1.89671217028894
C            0.74359304229288        4.61474032042203       -2.03554628884710
C            4.39622407213151       -2.45600214443199       -1.41546288806540
C            3.90253163281857       -1.16920172104283       -1.53305058423009
H            2.90274846137779       -0.80618639513448       -1.61864705257800
C            1.50944170246785        3.47026417677563       -1.90367359535088
H            1.22670275484822        2.44597365848399       -1.80671065693635
N            4.99604595836054       -0.37278877472867       -1.52095234586714
N            2.79140105481951        3.90295326385233       -1.91180979130756
N            2.80566389589655        5.23806794635666       -2.04143690376125
N            1.60597115678339        5.66360738150533       -2.11448702179619
N            6.09514379764315       -1.13232906428501       -1.40274792405190
N            5.75073177860359       -2.35780634984157       -1.34077956966816
C            5.05307789157327        1.02219949684241       -1.60968655188709
C            5.19191026599437        3.79571239820784       -1.78412587072127
C            6.28483259904054        1.65365932390949       -1.58388029961616
C            3.87997014992815        1.76098272726923       -1.72260763953074
C            3.96230199024559        3.14277797083142       -1.80566329417411
C            6.35817655741426        3.04554752199526       -1.67393867107659
H            7.18732612073620        1.07258701633245       -1.49567729192209
H            2.92496339228477        1.26805719239062       -1.74533153452387
H            5.19692352371962        4.87023637731420       -1.85401866206601
O            7.60971527094267        3.55752939283984       -1.64276719241906
O           -6.70497064778336       -3.86188229884721       -1.86822982701793
O           -3.26396021013062        7.26844509268395       -2.26980278534200
O            4.25573410455765       -7.25924085348647       -1.18491629959916
C            3.58325487091064       -8.50083179601837       -1.19066178725577
H            2.91079419372566       -8.59148739767223       -0.32840362116405
C            4.66246752938051       -9.57925869203323       -1.11866953805406
H            2.99700942704299       -8.62827086887015       -2.10950861206113
C           -4.66654845600375        7.43132085544120       -2.29021615638353
C           -4.93212090819406        8.93461297563386       -2.34494774132429
H           -5.10836158541309        6.94664354902198       -3.17001074875043
H           -5.12636958209361        7.00984420821698       -1.38744383142436
H            5.35125911042281       -9.45743369176552       -1.96770198436197
O            4.04698441880288      -10.84711443002650       -1.15546060750529
H            5.23959968969280       -9.45451594052150       -0.19063604361467
C            4.98207885661790      -11.90166995755071       -1.09046068366713
H            5.68869807899472      -11.84555215770827       -1.93121687392116
C            4.22886711135404      -13.22752672744443       -1.14868650757837
H            5.55937004766820      -11.85071164008316       -0.15582033548601
H            3.65856383670817      -13.28598582487178       -2.08686114594105
H            3.51774772554558      -13.28306984415472       -0.31199549925251
O            5.17536981122930      -14.27075265871252       -1.07194706810453
C            4.59077846514012      -15.55430454231702       -1.11655954418014
H            4.03595187200170      -15.69737938643200       -2.05514855485421
H            3.88946323088139      -15.69226547148508       -0.28091074068517
C            5.70925537360430      -16.58797106985326       -1.02111899214466
H            6.40964652036430      -16.44452272844620       -1.85727468584257
O            5.13888669162195      -17.87589039535986       -1.06369892947999
H            6.26317959673455      -16.43852246678123       -0.08242756572506
C            6.10089727701242      -18.90327789858139       -0.97784905072959
H            6.80896861746541      -18.85253149280574       -1.81344356649772
H            5.55146237412827      -19.84143075305200       -1.01970529100374
H            6.65927100667567      -18.84416872864426       -0.03609072809050
H           -4.47142752989706        9.41609555992551       -1.46979499595197
O           -6.32538979455291        9.15127732547101       -2.35593991899850
H           -4.46705538845233        9.35334683861514       -3.24951910612753
C           -6.65867710558490       10.52163389320585       -2.40302033957345
H           -6.24918319084449       11.05053204920258       -1.53014697701724
C           -8.17898906808493       10.65390924569095       -2.40855593271081
H           -6.24736407585619       10.98956349262571       -3.30926627401554
H           -8.59203051545662       10.18190378953644       -1.50541784842381
H           -8.59018091924986       10.13308575934568       -3.28514400141155
O           -8.49923520045034       12.02733032512012       -2.44622073343499
C           -9.88913920248932       12.27111106832272       -2.47033318163295
H          -10.37524451886664       11.84151082942111       -1.58250277876120
H          -10.34788148421916       11.82057511505168       -3.36247381485132
C          -10.10600405820379       13.78145362514221       -2.49222703173531
H           -9.65465195486124       14.22750411719808       -1.59354968226667
O          -11.49102597922042       14.03868922628942       -2.53393575628000
H           -9.60452113763820       14.20779545053198       -3.37372774893512
C          -11.79042995692001       15.41659022291147       -2.55363109110133
H          -11.41217614725101       15.91584482623920       -1.65373570621879
H          -12.87518661540051       15.49391652835793       -2.58680631732518
H          -11.35848746949651       15.90218225117487       -3.43664373448407
H           16.48152858001210       11.40523980813367       -0.89038330389435
H           12.37457556273268       10.54649136587737       -1.01335074408583
H           14.72661296090819        9.71840188454090       -0.88392893344904
H           16.16879493487710       12.86325734868016       -1.87287381163420
C           16.04597096262826       11.78337198598106       -1.82286832792330
H           10.62962522313847        8.84407480699511       -0.98323786221141
O           14.65816989624566       11.53867780626521       -1.87100650173598
C           14.34353975529256       10.16617761119784       -1.81298555771078
C           12.82637275108586       10.00974394356722       -1.86010824678781
H           11.40700744610767        6.47620513951260       -0.82910208606544
O           12.52525716817315        8.63271096137609       -1.79699213671243
C           11.14026460651111        8.36607333047208       -1.83150032727612
H            7.32280584156495        5.47881705110419       -0.90155634335723
H            9.71232622869975        4.76847640276164       -0.76519299330038
C           10.95089088091282        6.85407768306415       -1.75556924653737
H           16.55974058990265       11.31381494788978       -2.66999887045756
O            9.56938981222175        6.56712060810769       -1.78213526724338
H           12.43899254236028       10.45098726168341       -2.78989113154023
C            9.30909122278269        5.18429081429472       -1.70041545678517
H           14.79197397966409        9.62790124482874       -2.66123095314589
C            7.79886753786588        4.95678693605206       -1.74014508987299
H           10.69235777189487        8.74793143493221       -2.76010910821231
H           11.46162407250220        6.37892064419781       -2.60561572726417
H            7.38910730096687        5.34596074043016       -2.67972294880567
H            9.77751856666519        4.65108178595301       -2.54074521382786
H          -18.19882229267505       -6.58664732218750       -3.18055903381368
H          -15.09288793025389       -3.74503676517380       -3.18648363709934
H          -15.80058246915944       -6.13712110960350       -3.10039891203163
H          -19.25062177859271       -5.37249794883895       -2.40031002577936
C          -18.30423778497573       -5.90443000512751       -2.32875018758009
H          -12.68932578872892       -3.33157084641508       -3.10222978710566
O          -17.29417718251639       -4.92057080803694       -2.33740555212672
C          -15.99831143561302       -5.46726017495753       -2.25035737212212
C          -14.98439126416532       -4.32691152510381       -2.25974582206669
H          -11.22583741146157       -5.34537959800645       -2.91629952611177
O          -13.69313853881878       -4.88853017733198       -2.17005789989722
C          -12.66581578931044       -3.92166455096904       -2.17481386112750
H           -8.01742974288869       -2.62472889004705       -2.90210235114439
H           -8.83971019028540       -4.97727499954964       -2.81848692569150
C          -11.33139041580630       -4.65381268459932       -2.06794467981293
H          -18.27847533695098       -6.48893421149401       -1.40142624073066
O          -10.28994779794562       -3.70152837918115       -2.06972344875871
H          -15.17722467519234       -3.65549191936908       -1.41047753754936
C           -9.01708827628469       -4.29880901579764       -1.97104879522210
H          -15.88277893410216       -6.04882877568378       -1.32365605213707
C           -7.95302089017386       -3.20257866098990       -1.97243867793129
H          -12.77579609090466       -3.23072166725806       -1.32671344988963
H          -11.31357139814069       -5.24552907898128       -1.14126263288334
H           -8.11519231807255       -2.52815182532012       -1.12324249460239
H           -8.93342741951074       -4.88305797037133       -1.04280925437623
