79

O            2.42232371047136        4.55027797946145       -2.58465271565825
O           -0.42237057684629        4.30250524983558        3.84360484816420
N            2.09720691288322        0.17769580839946       -4.75304583339627
C            1.35130959431553        0.12629101649102       -6.02828259157089
C            3.53787040328175        0.28728738609550       -5.06591575329087
C            1.65044946201369        1.37402798295793       -3.98536760624485
H            0.63632771436148        1.19373933985698       -3.62649589027374
H            1.61987556432254        2.22806849268608       -4.66314019138112
C            2.52249080815292        1.75269872840943       -2.77140441736621
H            2.87980548002092        0.86975435499034       -2.23828574128590
H            3.37241030685703        2.36670197776391       -3.07515374280032
N            1.74607293882269        2.52937464735128       -1.83929172459482
H            1.11622317940028        2.01309260392535       -1.23088817205644
C            1.76761814325451        3.87676236949964       -1.80107105111933
C            0.91453186713657        4.46752095141574       -0.72622538491663
C            0.76226035502194        3.83418443301361        0.50167915627134
C            0.27069285612091        5.67930867524311       -0.95785280749133
H            0.41157675080637        6.17086564751834       -1.90877825647152
C           -0.53155688131417        6.24030489703001        0.02047482073347
H           -1.02644859516745        7.18218574795848       -0.16291652277740
C           -0.70216902877773        5.59409080574158        1.23241206845298
H           -1.32935049459744        6.01654578500971        2.00293174343546
C           -0.06132471927217        4.38338399913422        1.47731424977405
C           -0.26914267417474        3.70036689297695        2.78992474781633
N           -0.28605346694117        2.35460764931605        2.70902238006386
H           -0.23878155840939        1.89919914559582        1.80142836573133
C           -0.45464312585409        1.49530365628383        3.85272131560743
H           -0.14743014058549        2.06429535429621        4.73226494828707
H            0.20981485429067        0.63976355687610        3.71795641148470
C           -1.93022315354585        1.06102172720900        3.95990247399578
H           -2.31413459511760        0.92604915528128        2.94786505525581
H           -2.49157694036418        1.87105574795445        4.42678544649401
O           -2.40000305078439       -4.56425592005825        2.62022711820172
O            0.42511077349590       -4.32173364620998       -3.82481798086799
N           -2.18006656589677       -0.19128754766473        4.72784694238966
C           -1.46140217270267       -0.14555572938229        6.01878743729763
C           -3.62741035714719       -0.29582035046770        5.01018709304777
C           -1.72192018247595       -1.38753064866045        3.96703494996432
H           -0.70362824518563       -1.20573006186832        3.62077534541189
H           -1.69882901635376       -2.24200264580160        4.64455422248355
C           -2.57747295117618       -1.76842699192296        2.74211644314035
H           -2.92773546743249       -0.88729332777125        2.20147597316403
H           -3.43079812300608       -2.38276772218366        3.03593698129050
N           -1.78640228778807       -2.54425642869010        1.82181987312496
H           -1.17173993314142       -2.02328541621400        1.20213701881000
C           -1.77044905608010       -3.89220550136293        1.81493640886789
C           -0.91040998088654       -4.48348927569926        0.74647620781117
C           -0.76758102683189       -3.85984710788643       -0.48744355390947
C           -0.24791571008913       -5.68298683595241        0.98921466288388
H           -0.38068891985928       -6.16754801082626        1.94485982680446
C            0.56247172477243       -6.24093304121885        0.01564071686980
H            1.07071724444697       -7.17408418016986        0.20728716988993
C            0.72535258523677       -5.60258334238111       -1.20164979936410
H            1.35980188196488       -6.02232758306902       -1.96772753132058
C            0.06693179345568       -4.40352366979871       -1.45675858550851
C            0.26409731055300       -3.72146209655323       -2.77133748936111
N            0.26171191433606       -2.37587785342115       -2.69079210621015
H            0.20346964113378       -1.92051747944800       -1.78405218685355
C            0.39746757119421       -1.51161083003216       -3.83495004067842
H            0.06675379279737       -2.07521255535751       -4.70946785417361
H           -0.26347585481169       -0.65778728234431       -3.67579122462017
C            1.86888561612317       -1.07503081993851       -3.97963608982710
H            2.27836075170154       -0.94110960188892       -2.97754565750715
H            2.41853097649905       -1.88446482771012       -4.46139075564482
I           -0.07369352477312        0.01490476310116       -0.01955919366363
H           -3.92268884824232        0.48318512336875        5.70971826314336
H           -3.84477082439539       -1.26649481526540        5.44999641298253
H           -4.20497701140172       -0.18415867688754        4.09690694286143
H           -1.68174704591784        0.79019433669795        6.52735793351172
H           -0.38881045607681       -0.21916650165704        5.86336300831182
H           -1.78229586212665       -0.97390135389986        6.64648575568060
H            3.74250127683524        1.25754414298534       -5.51283008579258
H            3.82111338385375       -0.49271175323408       -5.76931373630226
H            4.13502934147476        0.18012211295330       -4.16475483219164
H            1.65604618049370        0.95342908530703       -6.66530856551610
H            0.28208555172674        0.19708493472853       -5.84989046141083
H            1.56359269210846       -0.81029595491948       -6.53859024346669
H            1.32322223110933        2.93797729012014        0.71624736372679
H           -1.34426990650703       -2.97600749931697       -0.71188488281175
