91

N            1.94924969536358        0.72487385115810        6.36684327791659
H            1.16173937563622        1.35661470164029        6.48465502745364
C            3.20476231771857        1.18286281561530        6.31404794390311
C            3.35248471071223        2.66555907241721        6.19293784489930
C            2.46166157458969        3.43851672885130        5.45782848412463
H            1.60786655463599        2.96032118210512        5.00024923067190
C            2.66808731984910        4.80922512549012        5.34034267486624
C            1.77347952257480        5.71812716038275        4.56189912974379
N            1.07431300859972        5.15786752843842        3.56195711633890
H            1.07594866430371        4.16167545190358        3.40557107303039
C            0.17470194945730        5.91979491819273        2.72705870651935
H            0.60423155306955        6.91758794480504        2.59782201337287
H           -0.79396091488532        6.04215864788061        3.22621630953971
C            0.01460122919602        5.23564294829403        1.37383134886696
H           -0.66169372592763        5.84420129175727        0.74955422360562
H            0.99310599603891        5.20854160160402        0.88745648467604
N           -0.42891676671179        3.85595842844172        1.48959616708934
C           -1.70383449131940        3.66128792517320        2.15300176047242
H           -1.63117670474144        4.05812626573077        3.16842957967050
H           -1.85709216015844        2.58241847740853        2.25123090442162
C           -2.92944233887695        4.27308707597276        1.45590788165650
H           -2.81161059345202        5.35239884796680        1.35077355163965
H           -3.04833624654844        3.84337467021907        0.46047680752672
C           -4.19374632326591        3.99317311480945        2.25631091136559
H           -4.28484398263155        2.91626204499211        2.44509436028458
H           -4.14865550834172        4.49463052549886        3.23453356164327
O           -5.31199290686871        4.47325399599833        1.52615125526685
C           -6.52239620873433        4.46452306024850        2.24149052093131
H           -7.24260788887448        4.95827172166621        1.58558459362935
H           -6.41992763534736        5.03300333114411        3.17738791928484
C           -7.02743605466885        3.05933236147665        2.59165285398028
H           -8.11201905720380        3.09056933497951        2.77641822223519
H           -6.83339075138492        2.38390310684501        1.74610368775669
O           -6.35156021712756        2.60995745628088        3.74759338336948
C           -6.48361166875955        1.23344298890143        4.01112767538661
H           -6.41808137824625        0.65545084297611        3.07938208771583
H           -7.45240935126888        1.03022331030497        4.49180050755294
C           -5.34615815471963        0.79518203922818        4.92922509921743
H           -5.15525149151995        1.58116980855338        5.67383143592144
H           -5.62974045351589       -0.12664120182659        5.46215318408676
O           -4.19193896272005        0.56149284868420        4.15624557949067
C           -3.07972181255390        0.18941098221903        4.94472222824775
H           -3.35212577409860       -0.68341678570436        5.56262029135230
H           -2.79852603302358        1.00264785489696        5.62883069135183
C           -1.89902282277722       -0.17088965737757        4.04930013921491
H           -1.50050363551675        0.73291556101859        3.58947657942550
H           -2.26088628968979       -0.84022202696344        3.26733166467259
C           -0.80965265920606       -0.82127779372849        4.90083928824367
H           -0.73086437423159       -0.22208710133375        5.80965070981895
H           -1.13338969218096       -1.84210689905481        5.18906099330127
N            0.50630894340109       -0.84024483769595        4.28604402227394
C            1.50611127909068       -1.39939499388484        5.18065068374414
H            2.46796693530400       -1.34016266035410        4.66604125102500
H            1.29163244690987       -2.46471441286224        5.40263283647462
C            1.66888826681879       -0.67991230994009        6.52478618165769
H            0.78120699873780       -0.78226801045329        7.15065821700728
H            2.52266416804682       -1.13932628589304        7.03611953377442
C            4.45140970436733        3.26356403997106        6.80264649557500
H            5.14002870668960        2.63642288177696        7.34956102066887
C            4.64332124283956        4.63029575706956        6.71351445705869
H            5.48537851504868        5.09399670600347        7.20535746048462
C            3.75241159270740        5.39821678332895        5.98864079769100
H            3.87495595470533        6.46792837864169        5.90371033344348
C           -0.34321270352034        3.16730135043030        0.20612024280314
H           -0.76309021511148        3.77587929151513       -0.61181867401075
H           -0.92091559244548        2.24448480529142        0.28774286963807
C            1.07844065004994        2.80202111446877       -0.12568318179084
C            1.67108373749892        1.66871790154201        0.42116021759731
O            1.08110328188278        0.78218243255839        1.26874795264789
C            1.99359380547238       -0.20330275847659        1.49003204244743
C            1.80220026495100       -1.34301235965350        2.26326875695857
C            0.51981069221779       -1.56304697093278        3.01647367157974
H           -0.29869592046536       -1.17414306689358        2.41100529953070
H            0.36433604585857       -2.64785599698372        3.17411648235457
C            2.85457006295906       -2.24807912980190        2.28940169492971
H            2.74122595771433       -3.15685216195679        2.86268718206694
C            4.04508622649104       -2.02569267125577        1.60309778874880
H            4.83121948841944       -2.76301430941284        1.66488917879111
C            4.23303226257567       -0.88305582599548        0.85206563096091
H            5.15528341866388       -0.70713284805778        0.32070189572217
C            3.19253139083890        0.03505702840537        0.78889712368317
C            2.98367081388066        1.27659149156314        0.09202784550955
C            3.74538620692221        2.04957859289029       -0.77547169481191
H            4.75425834680812        1.76146537329319       -1.02604955058618
C            3.16977947041478        3.18412932768187       -1.31132627559206
H            3.73509730879372        3.80049996478530       -1.99377636545122
C            1.86123361089294        3.54351108277011       -0.99957445673430
H            1.43434210249131        4.42167099051612       -1.46187964223464
O            4.19030622980196        0.44717859286306        6.36083313710660
O            1.72247826032072        6.92355013494516        4.79254216315914
Cl          -0.71744021185443        2.06603946207384        7.44956858863812
