131

C            1.81483749062454       -0.46837692925768       -7.55876176345482
C            0.96021764742075       -1.30719093978195       -8.52510943780035
C            1.78209837216429       -1.45421388863536       -9.81443012200270
C            2.04054504678508       -0.05692553575376      -10.39183394259547
C            2.68382437118548        0.86086494742585       -9.33823303742214
C            2.66140152485605        2.32917708714428       -9.78297547862334
O            0.64360369511376       -2.52121884297775       -7.90744265106725
O            1.10950006361972       -2.21417980301463      -10.79653448268308
O            2.90324626522749       -0.27015408599021      -11.49183315889003
O            1.97720851202870        0.82040166732847       -8.09880706168868
O            1.35451619054492        2.80059934764175       -9.97940760181298
C            2.75719440070050        0.49238263128931      -12.65556837232915
C            2.84001160620880       -0.50836429889485      -13.82208871288521
C            4.24902978598649       -1.11990985442889      -13.80332934463009
C            5.30027404849656       -0.00688056834459      -13.89124175702823
C            5.07422546579152        1.00446602488697      -12.75551846691729
C            6.00288874906381        2.23407647849656      -12.81687048673614
O            1.84983842146312       -1.49362742668837      -13.72357657047752
O            4.44315795292751       -1.99981377532128      -14.88379748744033
O            6.57552495092784       -0.62252893590100      -13.78457082065972
O            3.73445059636648        1.49070654470720      -12.78221535316123
O            6.34686619289098        2.65690498470544      -14.10818671698258
C            7.47945188970317       -0.43653124543534      -14.83538886156598
C            8.28802100279028       -1.73007030692468      -15.00580741803732
C            9.09983598157810       -1.95360341446540      -13.71892046131657
C           10.01601296942179       -0.73788537864880      -13.46009848356534
C            9.20277301148012        0.57306684858096      -13.49075631927683
C           10.07570229664677        1.83069060500666      -13.59663802509105
O            7.46580527002358       -2.81003326059860      -15.33770371306853
O            9.81778328703536       -3.15330950647011      -13.75431916229638
O           10.59066950245330       -0.99742557240081      -12.18691880641939
O            8.33563379668890        0.65398803568039      -14.62749315557547
O           11.08472719655353        1.62504650913506      -14.56089860800325
C           11.72500968992118       -0.28416032108312      -11.79993913095549
C           12.62348423402770       -1.20732759022595      -10.93741230219150
C           11.84679536257416       -1.57314864098463       -9.66965741156661
C           11.38326397431483       -0.29587448431964       -8.94012076691982
C           10.63687599062832        0.64087118890299       -9.90043771070639
C           10.30755054973867        2.01486747811944       -9.29390385641485
O           12.98302381883042       -2.37787582042607      -11.60896531509693
O           12.68028358222069       -2.32216247692096       -8.82242152906397
O           10.54052586563558       -0.73019349387787       -7.88544303441168
O           11.42003632462959        0.87698191392170      -11.06278471167960
O           11.41736891262647        2.85460276969354       -9.13174994774659
C           10.80367383478563       -0.30530034035823       -6.58237976803912
C           10.67155328973264       -1.53249346771053       -5.65121056199141
C            9.21967401772146       -2.01483942375332       -5.72939923166523
C            8.26641645709831       -0.85903522008881       -5.35708161037119
C            8.56076370228213        0.37838279776737       -6.21990740641652
C            7.76802616555204        1.63718600393400       -5.80161822639722
O           11.53732713482968       -2.56348876103055       -6.04666043491282
O            8.97530897413490       -3.14221016570841       -4.93357058218730
O            6.95110767735675       -1.33110414294649       -5.60322616010963
O            9.94363615540271        0.71991881310737       -6.15714004594998
O            7.41498333414253        1.68897002142163       -4.44500717119382
C            6.03283408329779       -1.33795637003004       -4.55409958864024
C            5.16553175407588       -2.60136622372812       -4.69632289617118
C            4.40031951200642       -2.49967619752371       -6.02729944099408
C            3.55724672418885       -1.20613477552442       -6.04124622297097
C            4.43188506974519        0.01810449931769       -5.70778175610806
C            3.59918216670985        1.27348834436811       -5.41096300796172
O            5.93370376843739       -3.76209308867942       -4.57964337637826
O            3.62529025601113       -3.63658328689262       -6.27861203441630
O            3.02885971696218       -1.12440042033525       -7.35370370599270
O            5.22483367454795       -0.18751395324609       -4.53307018971214
O            2.66609916113776        1.06570780128411       -4.38283906926151
H            1.27903116840370       -0.31761600436969       -6.61112898224384
H            0.04605627633404       -0.73623335978829       -8.74796998632165
H            2.75738467444099       -1.89417353091132       -9.57315851776116
H            1.09222575546911        0.38141515372568      -10.73693713714071
H            3.72197188179259        0.52928028977098       -9.19299678533653
H            3.18153862436133        2.42346581875868      -10.73761183380314
H            3.18599947024389        2.92756248917874       -9.02902432110271
H            0.03029798983272       -3.01580853990130       -8.47367550983493
H            1.25641293358144       -3.15393345771437      -10.61790774451707
H            0.88379627316035        2.75296694814610       -9.13301180624729
H            1.79917030544525        1.03083901421153      -12.66272349316506
H            2.67940388702676        0.01016670764629      -14.77333013609674
H            4.40082237864124       -1.64413907201614      -12.84608134436499
H            5.20242089943398        0.50231828422888      -14.85989121741369
H            5.25122945079925        0.48480871076377      -11.80266062977291
H            6.89362475470582        2.01405992227779      -12.21868607782129
H            5.46235904259987        3.06531741170374      -12.35738533716119
H            1.74309638122138       -1.74914750529544      -12.78751062390499
H            3.63883225953546       -2.53665171794085      -14.97983082089502
H            6.94772401594999       -0.20385045895012      -15.77002225926607
H            8.97688882136116       -1.60128860794583      -15.84985096178728
H            8.41913120692353       -2.03387873162345      -12.86316912870192
H           10.80736119857088       -0.68833033293884      -14.22243006226809
H            8.60592314078119        0.59772630616347      -12.56894606855399
H           10.51476520321877        2.05223541157196      -12.61902425067721
H            9.41386883672669        2.65147710222118      -13.89470478443117
H            6.66995249155900       -2.79139719095149      -14.78288277934021
H           10.30454109689026       -3.21741795764730      -14.59158117455192
H           11.48645529029715        2.47948472087895      -14.77635462392183
H           12.27462366231288        0.08110935923006      -12.67936630276786
H           13.50960601986938       -0.63037637932907      -10.63738495131675
H           10.95767295627974       -2.14640468075324       -9.96516189635949
H           12.27389236453042        0.20510526003599       -8.53266796418654
H            9.68916766067399        0.14924044350185      -10.16724983088859
H           13.71601652748928       -2.20032689339703      -12.21778513605360
H           12.15016633583964       -2.63280090947175       -8.06587772296202
H           11.81174313548477        0.12812274670451       -6.50439925939891
H           10.88002786637920       -1.20238216536632       -4.62386813472531
H            8.99017152503471       -2.31143535650033       -6.75869148662701
H            8.38819916536089       -0.60099242530505       -4.29430466860396
H            8.29761697138675        0.12208081876976       -7.25612606437905
H            8.41779504770495        2.49759152520029       -5.98097893531285
H            6.88691121124480        1.71385575057948       -6.44652060369625
H           12.41528080886098       -2.43265714071056       -5.65528244100676
H            9.34991044774129       -3.01281841288745       -4.04766022081743
H            6.62806690561952        1.13284511716023       -4.30120708008397
H            6.54019146285693       -1.34019176490000       -3.57797294731734
H            4.45126384693096       -2.63597867082153       -3.86496964281939
H            5.11541265428185       -2.43415356227772       -6.85868663152206
H            2.73196828556055       -1.28405545704153       -5.31654518915894
H            5.08107172881081        0.18999550600295       -6.57660503952280
H            4.28528001338962        2.09000130882176       -5.15683944166610
H            3.03570076208724        1.54810506883066       -6.30243038346556
H            6.68280389735569       -3.72077618844573       -5.19548243604035
H            3.03382661544163       -3.80343982202185       -5.52734564522911
H            3.14768311848119        0.90221111335418       -3.55792754469556
O            7.52724459030897       -0.13908868411230      -10.67545878646488
O            5.24986408538304       -1.67826783352252      -10.20033119547671
Re           6.55428390146153       -0.86942605562962       -9.48947277420970
O            7.47324246151087       -1.96325627261104       -8.58531900580110
O            5.97316468335236        0.38358019278949       -8.49257185752044
H            9.78027329832905        1.85337595717133       -8.34678623130947
H            9.63864418748476        2.53849598008861       -9.97987481763009
H           12.00595839728043        2.50369688062687       -8.44921488223481
H            7.03657689741867        2.06614397104148      -14.46361281529950
