209

O           12.55383339131106       22.41712721937213        6.85462341561581
O            8.03413874892118       23.84182826403946        7.75058468337466
O            5.61672334552789       23.07916918926992       11.68292921170115
O            4.77929411198354       20.79862721689471       15.81629297052341
O            8.05673411356970       18.30361403884704       18.08938142599476
O           12.61169160994681       17.23977805564261       17.03464774384535
O           15.95393793314241       17.42046455179171       13.73571818478664
O           15.33939680377056       20.07544779991427        9.79229429580218
O           10.94976587924024       17.65811077647342        6.40483729947601
O           12.50257114521180       16.47175833957250        7.63408870648181
O           12.60644398997347       14.21883843582099       11.79538451248163
O           11.08705846769522       13.92880655778675       13.51643633020619
O            6.63343449604588       15.29460243280593       14.32826399106631
O            5.06521512575403       16.54094622400434       13.17052735492441
O            5.05289613667494       18.80095140357409        9.01371591684726
O            6.51235881238776       19.06882622308515        7.24234580010003
C           11.27232148543369       22.72060064604395        6.44063123064699
C           10.23472240285612       22.89919494902412        7.36635824924042
C           10.42187016609865       22.58524811081006        8.81673553377354
C            9.03314118131575       23.43713986181037        6.88765643526392
C            8.85778250882804       23.74967082844847        5.54689904529920
C            9.88891780260670       23.52677947150907        4.64124620517066
C            9.74843129307594       23.80855609013237        3.18603632928490
C           11.09561373711703       23.00797616799792        5.09617155352327
C            7.34875188441511       22.94222596001302        8.51560202708364
C            6.79125508600138       23.42270139636020        9.69188719346662
C            6.05246018978341       22.56631389805390       10.49860291159764
C            5.85409585893144       21.24604422456100       10.11737531077923
H            5.28560140723451       20.57351097284222       10.73872563852822
C            6.41078775018454       20.78339628299657        8.93634079165030
C            7.16343604156638       21.61951797383207        8.13138567539743
H            7.59641718756002       21.24385314574830        7.21830898085502
C            4.76483395186498       22.35262245973824       12.49529504709235
C            5.25821084311218       21.86099332611474       13.70807115467508
C            6.70601047453177       21.98484127805480       14.05561314238783
C            4.35080212055205       21.24888999848763       14.58016400249583
C            3.00434341579701       21.14399530244729       14.26828600358471
C            2.54011860556634       21.62263396280701       13.04621029579923
C            1.11653729211609       21.49934554909839       12.62826555952409
C            3.42962529132246       22.21234529865131       12.15381739981181
C            5.56365856424151       19.67705407134822       15.85068413053813
C            6.41381239934786       19.52149753755556       16.93637566382893
C            7.22634463077519       18.39651391964400       17.00854659584262
C            7.17380161865179       17.42658546467398       16.01498240349099
H            7.79645264886797       16.54815129582865       16.06753721524416
C            6.30450646977572       17.58481011007914       14.94850829749760
C            5.50524112185309       18.70941797027675       14.85406427313214
C            9.10201519724061       17.39425694125238       18.05355616164986
C           10.31716810227669       17.77030819511548       17.47115884264835
C           10.47697138613961       19.10606527813686       16.82217770384320
C           11.37173222434770       16.85156155061296       17.51289995602122
C           11.21230745835387       15.60432326727407       18.09378430976095
C           10.00098442881833       15.25840705325862       18.68449679263666
C            9.88168039077428       13.90166482947185       19.28613231639812
C            8.94106527947626       16.16075748479948       18.66446074686093
C           13.03911602203138       16.80167193450269       15.81589720893898
C           14.27550367418420       17.27338678239064       15.38799937745946
C           14.73141447636848       16.93614314824450       14.12235411801725
C           13.97208103390999       16.12090220700203       13.29031414552478
H           14.31980333298458       15.85898022010556       12.30418339816229
C           12.75381342904888       15.64284689672205       13.73571421812629
C           12.27993417032706       15.98034115414575       14.99291495109661
H           11.32225479280135       15.60794374873725       15.31804348330488
C           16.15920711187418       17.63236599755562       12.38348129527492
C           15.54187463666855       18.71728514719791       11.75047420097443
C           14.60750277635865       19.61705080480651       12.49148846182650
C           15.82851226670516       18.93148750496968       10.39855764096908
C           16.66710653687378       18.07940894408262        9.69946794863917
C           17.28464360859097       17.01680643039412       10.35204330781094
C           18.16742285533956       16.13021564565678        9.54520735635539
C           17.03342391522471       16.79858331497501       11.70408692735245
C           14.31426733596858       20.00295492487937        8.89838603123306
C           13.94235487973787       21.19671703642755        8.29296765403732
C           12.85040129600644       21.21888546739220        7.43675849672288
C           12.13658705164978       20.05660894269281        7.16964556971272
H           11.29121044020853       20.07176879704141        6.50072335574177
C           12.52926674017105       18.87209461567938        7.76673904604946
C           13.61099132920570       18.83600490863018        8.63127688377191
H           13.88975354377427       17.90564943587701        9.09855579900417
C           11.69419432623651       17.62281613438993        7.59774767402357
H           10.99491529717359       17.59773442007521        8.45624588351408
C           11.98165181723203       15.44834415956893        8.41990002343736
C           12.54103017948094       15.26738227278065        9.67162560728568
H           13.35639642791001       15.89610173452141        9.99213714812836
C           12.03649573376424       14.30950080061711       10.53097971433247
C           10.95942097345515       13.51072839233001       10.14470438800340
C           10.41388326193349       13.71468654796089        8.88511627975347
H            9.56875819313471       13.12108415246852        8.58261414917314
C           10.90481542201289       14.66470005898595        8.00151994513889
C           11.85704256028582       14.86694193620620       12.79781117396167
H           11.18752357942722       15.60734841866284       12.32060393375918
C            9.75808437324557       13.86892915087079       13.11749794801167
C            8.83144997924499       14.54417968881375       13.88966771299207
H            9.15227202799885       15.07155242790281       14.77441977696732
C            7.49829288545758       14.56492910763685       13.52347696651147
C            7.06809750639309       13.90562479321903       12.37120235850985
C            8.01682052770006       13.23648426113775       11.61138070891872
H            7.70342387580768       12.73756022582034       10.71108156173282
C            9.35897279704697       13.19645710632153       11.96182642309790
C            6.31342261078900       16.57206351909650       13.82521032713990
C            5.15464893597106       16.43794011610525       11.78694999337992
C            5.01612863933719       17.60326166615625       11.05651564348469
H            4.84151215717267       18.53651736522283       11.56792759574693
C            5.13621054299942       17.58189065788250        9.67986034349380
C            5.38455346160639       16.38468161784155        9.00655065104482
C            5.52498908136489       15.22953468715662        9.76138564850710
H            5.74248135996032       14.30801931119243        9.24939248419603
C            5.41547929775349       15.22624679763027       11.14568104054757
C            6.30221787184252       19.31054879242958        8.61235173864964
H            7.09855348761096       18.80502441446646        9.19150408128467
C            7.37577308992600       18.00160925627429        7.00800306336511
C            8.69380744225875       18.30324981681985        6.72434062130730
H            9.01200695248472       19.33204190648065        6.66915150698457
C            9.61972240483574       17.28715514193219        6.58696517137180
C            9.24193522303969       15.95052901841118        6.72326975128857
C            7.91178064530203       15.67711987574628        7.00548601867114
H            7.61498476758424       14.65152839169724        7.14054360364016
C            6.95956820538650       16.67731825586827        7.14464523579509
C           10.31623618522571       14.88707631770035        6.62256429023820
H           11.12126798113256       15.31853604678891        6.01157642264286
C           10.40991727337935       12.49705065037761       11.12747728779729
H           11.23162775842942       12.23997137273406       11.80840302621461
C            5.60541804576206       13.98438964202135       11.99123327153148
H            5.05404183067971       14.14796511410248       12.92665033035869
C            5.51003146617040       16.41168936133192        7.49868370458923
H            4.94242084943531       17.28968057933068        7.16162784637962
C            9.87196449753494       13.58216085884636        5.95241527279637
H           10.72393892083917       12.90320231434777        5.97420945155091
H            9.05649173588577       13.11073715177753        6.49976932888107
C            9.40726653194063       13.80005129202002        4.51055260339959
H            9.81137947334627       13.02483864205124        3.85660870548152
H            9.73781387577050       14.76080886111327        4.11618886961007
C            7.90707772656142       13.72364547707302        4.35581995423707
O            7.15385063869921       13.22254160074900        5.16436531996394
O            7.49786994490267       14.23705650586668        3.21246222488526
C            4.92448237421318       15.18063943152094        6.80367662297302
H            5.55738439963326       14.30708216192709        6.94703071630776
H            3.94152452479596       14.96934731038748        7.22366608420652
C            4.79893846301186       15.44989749877436        5.30224718841298
H            5.75190672581281       15.79404181980802        4.89836683086890
H            4.05552118899545       16.23191941991032        5.12900307191332
C            4.35416718623804       14.23287105925558        4.53881150398579
O            4.80878953220451       13.90749939883557        3.45570695548589
O            3.39817986233969       13.55872148272600        5.12866247420698
C            9.91032252454201       11.20780319073677       10.47431023668185
H            9.14442977109567       11.41072741517040        9.72790329768957
H            9.46255784583303       10.58120996650418       11.24613012047079
C           11.05291243534685       10.45789781406279        9.79293035599515
H           11.70552835395673        9.96309441078079       10.51131501104025
H           11.66378787045945       11.16434517743886        9.22305538426021
C           10.55024587404985        9.43670812052662        8.80630452887667
O            9.46242895095442        9.45941670473664        8.27370366778684
O           11.44869258304758        8.49947335143435        8.55336545702255
C            5.06222080871133       12.70265291517006       11.35371581416965
H            5.27073622472711       11.87794263014028       12.03652407761221
H            5.54920807285992       12.49886492224070       10.40373505713862
C            3.55526901641064       12.80136427117675       11.12964991673488
H            3.29917644958609       13.68712153969527       10.54744510601983
H            3.20380079791315       11.92552403980187       10.58014564509396
C            2.77817356829923       12.84618582231145       12.41883164061783
O            3.18147170665361       12.47050547768505       13.49800332656444
O            1.55649205102152       13.32807677306390       12.24566745162871
H            1.03492217950548       13.34076395003193       13.07187142742664
H           11.14131704376172        7.84922899397510        7.89117355088841
H            3.11573158548733       12.76910757462845        4.62433870264831
H            6.51445550842658       14.14326988555693        3.08940575468618
H           14.86253090335000       17.90907986681609       16.02886309311193
H           14.48911808967894       22.10134551401386        8.49881734038724
H            6.94364482973525       24.44710763142043        9.98674548351300
O           18.05685660522631       16.03332795543816        8.34193426741013
H           16.85829744756590       18.24155813163267        8.64983804971207
H           17.45932795551278       15.96890515783069       12.24673744268450
H           12.02776842584540       14.89759533493706       18.10093450739969
H            7.97118451094413       15.91883700138290       19.07126316240238
H            2.36098466370373       20.64449345836534       14.97591419842401
H            3.06837315889062       22.57358959182761       11.20326776861200
H            7.89800095735213       24.14108514350792        5.24819471303405
H           11.90892116774468       22.85449515926801        4.40495158904325
O           10.55935940625105       12.96892493902478       18.91302591881360
O            0.78670983137111       21.46535747252033       11.46250807343867
O           10.37969432187297       23.20480120296634        2.34623868776606
O           19.09975408132683       15.43605328105996       10.18515472507072
H           19.16514189239300       15.63657340681167       11.13699861777528
O            9.00104566248191       13.73731777480388       20.26551653911785
H            8.56780455814000       14.56052357246050       20.55780421818452
O            0.19726475037211       21.43025352979216       13.58282975014916
H            0.54608017382826       21.55141877392791       14.48532606256187
O            8.89837126071527       24.76148895476010        2.82373967868641
H            8.50209432474444       25.24739860588209        3.57039165913616
H            7.08981647526036       16.89394319494055       13.10480366535683
H            6.45185847173631       20.26863119412937       17.71067705936163
H            4.84089190562693       18.82219114759509       14.01259218205431
H           14.58742932304788       20.59797810263920       12.02560332310838
H           14.91137015783561       19.70659335354707       13.53068920693464
H           13.59736326890961       19.20182527008888       12.46260530409453
H           11.52017304532152       19.40729452816319       16.83660676294366
H            9.86849494531076       19.84711747703250       17.33308390155685
H           10.14851038841718       19.05204098837257       15.78235336961139
H            7.13957780886779       22.83854351255320       13.54284005790361
H            7.23915045338962       21.08622454885014       13.73611437984485
H            6.83141617974259       22.09527407358677       15.12908488430534
H           11.46327813174833       22.71030132078007        9.10107170298105
H           10.13602411972290       21.54900298914454        9.02421350593694
H            9.80348406549720       23.23526486369335        9.43004734366844
O           10.43242683634739       17.26309793075783       11.13441963942560
Cl           9.19095942526383       17.66244262631212       10.55501198213314
O            8.67613562055921       16.60899727157044        9.75690983177790
O            8.26394187552796       17.96957229092517       11.59692561518101
O            9.40069098635603       18.82815728505548        9.75773152141874
