259

Br           5.14637261390501        7.37944148690889       -0.00030186277470
O            0.44050588131848        8.90023332711006       -1.12226614668021
O            1.31152945218498        3.49792891631216       -3.69736542641318
O            1.38999505134623        4.53965741543488        2.25567807500988
O            0.96211477693356        9.89368231950864        4.97171976310444
O            5.87622007715471        6.33863329531991        5.04286943721509
O            6.26530310977828        1.10193774600769        2.17556733428500
N            1.83795669820600        7.66397814409423       -2.46477904014155
N            1.07907859876423        6.75930464251484       -0.59206003609875
N            2.39525764088652        5.50583652300753       -3.40806763845951
N            1.32784063655733        4.60667144173015       -1.68279067372951
N            1.25541889077886        6.78759215341349        1.80504701142237
N            2.65520675881979        6.09245856867111        3.37733647722416
N            1.11094181654084        8.95431303630406        2.87818126763469
N            2.47870947743092        8.24284967919614        4.46777024494454
N            4.78319497390964        4.99010746846336        3.53774892246952
N            6.94173776353004        5.39304620712590        3.24434212232418
N            4.90714792965131        2.95745589010660        2.24197397086483
N            7.10237366770853        3.24324859830710        2.13950043189338
C            1.06020124549178        7.87914967541372       -1.36525055604497
C            1.64471928152261        4.43630920973438       -2.99868920737333
C            2.61468990002289        6.43897978919688       -2.34611913994885
H            3.67667417355691        6.69021698395168       -2.23731770166113
C            1.97661584242684        5.75465500964266       -1.11169705181170
H            2.69027099429745        5.45309185109217       -0.33012670567549
C            1.73580607789063        5.69178739488811        2.45463280841504
C            1.46246234063545        9.10719417963666        4.18837454256793
C            1.94074387387435        8.00089026103404        2.20088953156943
H            2.43092304777021        8.45510590603518        1.32760370995381
C            2.90943910857429        7.51614082667392        3.30984370900693
H            3.97405384170976        7.70166174965850        3.10716284625352
C            5.86616529547666        5.64754369433839        4.03858798149945
C            6.10842392671350        2.30849158552581        2.18727563129048
C            5.06302047398016        4.37996567750511        2.24840273081177
H            4.45681955979803        4.86028890874270        1.46833444754163
C            6.59200726570445        4.58485030943738        2.09792852781902
H            6.89918590653456        5.09554799800611        1.17348913125748
C            3.12279214272136        5.47665483442757       -4.66113321106129
H            3.44727805328046        6.49364406330530       -4.89678981307957
H            2.42262789815021        5.14275649325106       -5.43145088250455
C            4.32580980541784        4.56214069823456       -4.65674590090137
C            5.12056912779010        4.39397221852984       -3.53020172830905
H            4.86196100187611        4.88920853012347       -2.60482826162657
C            6.24081918844204        3.57990248176154       -3.56739508825871
H            6.84004158486596        3.45663817618525       -2.67648635144865
C            6.58442054151772        2.92122682796679       -4.73407133513684
H            7.46120764185959        2.29306999069078       -4.76248997176474
C            5.79709527173630        3.07999623471144       -5.86232938800255
H            6.05560003651480        2.56633566135059       -6.77595833643729
C            4.67743335934335        3.89160649374577       -5.82237390375886
H            4.06532389480106        4.00985645691750       -6.70376689037955
C            0.62889187095784        3.59864795869021       -0.91458480335290
H            1.10795283923709        3.50608406664420        0.06365088499602
H            0.75358665965753        2.65650928346596       -1.46057435766078
C           -0.84147614068629        3.89583646152771       -0.75169442356711
C           -1.46960259918121        3.66103733913929        0.46615234565368
H           -0.88960984867342        3.28021529243368        1.29462175560113
C           -2.82032409345859        3.92431265060053        0.61919011106357
H           -3.29692862666998        3.74029120370186        1.57054264129941
C           -3.55462041103508        4.42681524717052       -0.44170061887998
H           -4.60703975995933        4.63590694424266       -0.32138727572076
C           -2.93458830464233        4.66188520994259       -1.65760319053252
H           -3.50275415511040        5.05053498305129       -2.48984824525961
C           -1.58593365152158        4.39373023530427       -1.81345851962474
H           -1.10223881403547        4.56336551463330       -2.76426887367836
C            0.10670023198186        9.77738093856455        2.23305708594457
H            0.41187049246693        9.94800598372341        1.19758309109251
H            0.09651427287782       10.73145794503569        2.77236784945097
C           -1.27606738609526        9.17107063272140        2.27278799803536
C           -1.79307420168545        8.67478240384992        3.46294869791831
H           -1.20172804026892        8.74151607899128        4.36349704708433
C           -3.05859545247369        8.11660320991237        3.49848729737284
H           -3.44774459656283        7.73214853726808        4.42973579015603
C           -3.82555142505540        8.05757599167726        2.34660007639617
H           -4.81313287929198        7.62204582307431        2.37507140101469
C           -3.32347992038443        8.56403860896966        1.16022007768948
H           -3.91648632398390        8.52585055863178        0.25861386185092
C           -2.05412906656120        9.11633696113899        1.12218076336065
H           -1.65723679007475        9.50100841871574        0.19388342794943
C            3.14832495792609        8.20879319818318        5.74950976943841
H            2.98986173732851        9.19313761721206        6.20424439681218
H            4.21802701401709        8.06434589406332        5.58129677471932
C            2.61805420690909        7.14031052129006        6.67410604254486
C            1.25692988096621        6.87457524548537        6.75068168785926
H            0.57254806957401        7.43826353801829        6.13475289708077
C            0.77952821605064        5.90348676668655        7.61335396572452
H           -0.28097554130538        5.70500904582119        7.66181654249590
C            1.65764810957653        5.19343289855831        8.41520263539002
H            1.28421631643502        4.43800216154659        9.09044359527721
C            3.01563467170890        5.45684422846496        8.34878943443836
H            3.70611153821258        4.90690559718371        8.97096334282572
C            3.49468862428447        6.42320453209516        7.48055135542366
H            4.55482554791323        6.61969322348874        7.41339449798822
C            3.65035382138386        2.24771564968621        2.08845909393231
H            2.83801933498872        2.96454392106681        2.22916145114518
H            3.59305701771823        1.48505519512171        2.87041325062089
C            3.50062814879525        1.59352222642412        0.73704879025028
C            2.98325545802187        0.30910002529772        0.63709433691401
H            2.72497155671751       -0.22941392770140        1.53656811106941
C            2.79966815153354       -0.28215945855687       -0.60052056475868
H            2.39639779231318       -1.28180607332048       -0.66305616692971
C            3.13524526418770        0.40340783224489       -1.75546340432568
H            2.99140692230086       -0.04938862094413       -2.72463832505202
C            3.65786147220474        1.68197425393634       -1.66643862095015
H            3.91842965751858        2.22430317628036       -2.56333554126619
C            3.83702554541634        2.27184733060142       -0.42760407832832
H            4.24688807371045        3.27138638410818       -0.36756529094812
C            8.50178152817807        2.89570555198188        2.01255458294563
H            8.98189026693447        3.61883144285684        1.34786190282275
H            8.53017032893527        1.90183273793675        1.55102616553648
C            9.22521983766352        2.85098214878025        3.33699506007160
C           10.50230161990577        3.38778059391123        3.45308482931375
H           10.96287981968313        3.85079225618933        2.59193195060264
C           11.17416442748571        3.34182635164110        4.66304647933867
H           12.16578972071756        3.76258412799059        4.74084232908369
C           10.57435213688604        2.76310866226067        5.76880176108409
H           11.09622416639551        2.73054646431916        6.71354927026937
C            9.30287410338346        2.22477863977673        5.65868562475876
H            8.83081659382308        1.76814191761665        6.51612943118873
C            8.63319793451692        2.26426094409916        4.44830905650897
H            7.64769051797556        1.83241379537500        4.35723848091359
C            2.08507046600376        8.70263398691085       -3.42826958662239
H            1.26908153423305        9.42317024634022       -3.32714122053804
H            2.09817137100740        8.28204811553724       -4.43692871692926
C            0.38330796628793        6.67253026572090        0.66567880195847
H           -0.35052551712706        7.48133100234440        0.67646657090289
H           -0.11565374041110        5.70402032187973        0.74854728581785
C            3.47124501137464        5.15673761429088        4.10658885606091
H            3.61698917267095        5.51349477354638        5.12955424104149
H            2.93799422570995        4.20340269300634        4.10595404846794
O            9.85213937599636        5.85862807064948        1.12222593019666
O            8.98148745627447       11.26103743900398        3.69732106494121
O            8.90275420406435       10.21925220840977       -2.25560614149295
O            9.33035697457157        4.86523204343677       -4.97174785683297
O            4.41648605321278        8.42048442470435       -5.04297954787328
O            4.02739421293457       13.65706987000347       -2.17553889804045
N            8.45482511746014        7.09499321050170        2.46477857212331
N            9.21374819378615        7.99961512085221        0.59205074441738
N            7.89763415502740        9.25319596793623        3.40804458398486
N            8.96511199832042       10.15226951392373        1.68276145969631
N            9.03727964512014        7.97130201479458       -1.80504986754116
N            7.63739600175470        8.66652667558080       -3.37720746016571
N            9.18160534978845        5.80455872276505       -2.87818647941589
N            7.81391759286512        6.51620657119380       -4.46777428797096
N            5.50949465832872        9.76902219628129       -3.53785273908850
N            3.35097962712325        9.36594200730952       -3.24438666916246
N            5.38555289140733       11.80155453700751       -2.24188728236633
N            3.19032349919696       11.51575569724856       -2.13958023779562
C            9.23253527056852        6.87976634311082        1.36522996850498
C            8.64824520257750       10.32266653564916        2.99865363772059
C            7.67816721091087        8.32004081217841        2.34611983745117
H            6.61617371972968        8.06886241657812        2.23733828189061
C            8.31626954021736        9.00431032436387        1.11168302973694
H            7.60262327288216        9.30591166766306        0.33011999919651
C            8.55688331650331        9.06714211887668       -2.45457348491519
C            8.83008261298187        5.65175004054516       -4.18838961740621
C            8.35188484008436        6.75803884486229       -2.20087469329193
H            7.86171202475957        6.30384952023305       -1.32757071704499
C            7.38318536167075        7.24283623460690       -3.30979813244287
H            6.31857389433836        7.05729552950567       -3.10711219334536
C            4.42653982413896        9.11154029331566       -4.03867121419190
C            4.18427665537503       12.45051407512569       -2.18725967875790
C            5.22967458016734       10.37903886505128       -2.24844577205521
H            5.83588643475511        9.89866350494835       -1.46842056552240
C            3.70069737285609       10.17415111439415       -2.09798012195126
H            3.39350936555683        9.66346994765459       -1.17353433205701
C            7.17010353388225        9.28243875526658        4.66111013275310
H            6.84568930892249        8.26544957230064        4.89686334272478
H            7.87026228432568        9.61646404790849        5.43137602961824
C            5.96701954455787       10.19687168934166        4.65667283068623
C            5.17223692849377       10.36494036038632        3.53012981750751
H            5.43085367598736        9.86967277693429        2.60477744988062
C            4.05194453903867       11.17895447670951        3.56729235987001
H            3.45270827110918       11.30214380971253        2.67638284421905
C            3.70832459855224       11.83767736448336        4.73393639512697
H            2.83151381909781       12.46580352889355        4.76233051823207
C            4.49566816989605       11.67900454199376        5.86219420092071
H            4.23714932735906       12.19270569933097        6.77579657375940
C            5.61536819290060       10.86744491494932        5.82227076369921
H            6.22749326608763       10.74927273392315        6.70366286857728
C            9.66416378158452       11.16019558880883        0.91453111685129
H            9.18507707305814       11.25281998228012       -0.06368741617628
H            9.53960743473349       12.10235156643217        1.46052309525255
C           11.13449116813434       10.86284461502793        0.75158057274558
C           11.76262135872915       11.09777054838439       -0.46624169802498
H           11.18263984308228       11.47876960043245       -1.29463698487397
C           13.11331704454482       10.83440539196566       -0.61934382004439
H           13.58991910103973       11.01854923435421       -1.57067367819732
C           13.84758775938191       10.33168050340382        0.44145916560033
H           14.89999290402651       10.12253949920281        0.32110568684486
C           13.22754998166794       10.09646427892836        1.65733019240706
H           13.79569357641324        9.70762872125315        2.48950331305217
C           11.87891971329340       10.36470896559028        1.81325052223780
H           11.39522641621757       10.19495028486329        2.76403954299532
C           10.18577927932913        4.98138301171995       -2.23308948850446
H            9.88063031869841        4.81081220915921       -1.19760014083667
H           10.19582988809372        4.02729396381212       -2.77238161343935
C           11.56861790307982        5.58752461067756       -2.27288480291966
C           12.08567945424333        6.08363370840068       -3.46309509692802
H           11.49432409440339        6.01689714241804       -4.36363693556029
C           13.35126720250883        6.64166153554830       -3.49868763633549
H           13.74045886597015        7.02598553967414       -4.42997197143494
C           14.11822929371966        6.70072074450977       -2.34680670821424
H           15.10586157807269        7.13613273035412       -2.37532763932817
C           13.61610019623604        6.19443605493260       -1.16037437946451
H           14.20911229665022        6.23263526858651       -0.25877312507766
C           12.34669015358724        5.64227762914645       -1.12228462676039
H           11.94975710812587        5.25773388209527       -0.19395181589380
C            7.14423494308807        6.55023480476555       -5.74946392868102
H            7.30261954539773        5.56586600334209       -6.20418132771931
H            6.07454539534048        6.69474474732797       -5.58121448860807
C            7.67446459165649        7.61865488736606       -6.67417448504558
C            9.03561776761872        7.88422666167780       -6.75100458190558
H            9.71999429728176        7.32039315223058       -6.13519718240844
C            9.51300585754748        8.85522382126839       -7.61376726045780
H           10.57352586011923        9.05357196279071       -7.66240399808982
C            8.63481771093308        9.56535652303507       -8.41549442019248
H            9.00819218211909       10.32079108882071       -9.09076365398341
C            7.27682894889508        9.30207861497173       -8.34886525759014
H            6.58633610365025        9.85209720398746       -8.97094988296677
C            6.79778344975294        8.33581029741573       -7.48050914227423
H            5.73762619996602        8.13947705073555       -7.41320944135864
C            6.64238480876401       12.51121356433664       -2.08835050873072
H            7.45466546791087       11.79431522784292       -2.22901101996598
H            6.69978258272656       13.27386020599962       -2.87031040620558
C            6.79212799580039       13.16539291185779       -0.73693554102430
C            7.30936432652283       14.44986765951030       -0.63697599878587
H            7.56751295212872       14.98844675226840       -1.53644957342137
C            7.49300007187455       15.04109556347280        0.60064731036641
H            7.89617611726769       16.04077980957146        0.66318553468667
C            7.15760000397964       14.35544582746188        1.75559228731780
H            7.30148919466484       14.80821451463419        2.72477232927049
C            6.63510507957964       13.07682958840593        1.66656246753609
H            6.37466908488782       12.53443813742507        2.56345983959544
C            6.45590110965213       12.48698624291959        0.42772133154202
H            6.04615126076559       11.48740121459671        0.36767338625678
C            1.79090364520284       11.86324821985956       -2.01263193433199
H            1.31083308445452       11.14011088781143       -1.34792150428298
H            1.76246392901335       12.85712846626313       -1.55112182241594
C            1.06746834297891       11.90788434201562       -3.33707451013329
C           -0.20953789399879       11.37084711343938       -3.45319704403578
H           -0.67012225581050       10.90798723427737       -2.59203397736197
C           -0.88137293648808       11.41667676262525       -4.66317992860889
H           -1.87295764533812       10.99590165133804       -4.74095443327772
C           -0.28161515725825       11.99556181048425       -5.76893545094524
H           -0.80344561976225       12.02799296075078       -6.71371055770354
C            0.98976750000225       12.53416711716666       -5.65877371007721
H            1.46181951623756       12.99068740089463       -6.51622201676554
C            1.65942104895873       12.49476359548710       -4.44837801605649
H            2.64487762835260       12.92667607536665       -4.35730996272492
C            8.20766208670169        6.05631193923770        3.42823706583845
H            9.02362891989525        5.33575518896789        3.32707275314042
H            8.19458329185279        6.47686924600323        4.43690704972839
C            9.90945953405000        8.08629458358947       -0.66573682735526
H           10.64319972262433        7.27741073306425       -0.67654096868098
H           10.40852428509276        9.05474758087439       -0.74863547124900
C            6.82148233122910        9.60227282968333       -4.10656764771549
H            6.67580949375376        9.24549450186621       -5.12953624241366
H            7.35479741215966       10.55557253188454       -4.10591209687904
