69

Br           8.32755975664601        3.79154215800675        3.27521400058095
H            5.08983778727812       -1.81857608469657        1.31728922734105
H            3.20144000626584        0.02157650142801        0.98843432246894
H            2.02894190511743        2.10656255528195        4.31747994924427
H            2.67742743409372        3.19995788833515        6.65378140611608
H            5.61709356635646        4.01803803210685        9.46614379851050
H            7.50975225200219        2.18116998977864        9.78791742310872
H            7.28049595581886       -1.24053090819791        7.44488415426569
H            6.62729144936926       -2.33939698660822        5.11302605959967
N            5.84716768318386        1.09242979088939        2.52339828583159
N            4.77825896934421        3.82191952280786        4.26541688148996
N            7.01154573857498        3.04956185009530        6.70576669304130
N            8.23075200331060        0.46557456464329        4.85858660563601
H            6.43525591163371        1.77708668600904        2.97199058006179
H            5.62607246588961        4.18371131813256        3.86005946571739
H            7.17877358782283        3.04852225398734        5.71191272495210
H            8.63374361801554        1.25202126185893        4.37550895539613
C            6.19777011924853       -0.20321762256128        2.29868328484146
C            5.14924084854873       -0.79881633909298        1.64438515405806
C            4.14738922633518        0.17739523249511        1.46948782289661
C            4.60759761792250        1.34584185565999        2.02180670489204
C            3.97833269046458        2.71012488723944        2.13820343243973
C            3.86408130179833        3.06238736943639        3.60048886676356
C            2.89407434970946        2.71173500804999        4.50715162034798
C            3.23745356631882        3.28981041543898        5.74327749348749
C            4.41081274959445        3.98120177849095        5.56727217273443
C            5.20962707400690        4.78013152802281        6.56664467393611
C            6.09943374639310        3.83847792724569        7.33676132561344
C            6.19376161012589        3.57224303225653        8.67930610489163
C            7.19826683528207        2.59806304451136        8.85003547241700
C            7.69331394227210        2.29183305709549        7.60765843603482
C            8.77146291392305        1.33253677985210        7.17309835407879
C            8.17754494231420        0.33203943407560        6.21308380754306
C            7.50624402181607       -0.83658148574469        6.47718714294919
C            7.16071856418732       -1.41789059692134        5.24324149011120
C            7.62793661144282       -0.59316852033595        4.24950262865731
C            7.52812899567797       -0.74704449511724        2.75225030758955
C            4.83750523578072        3.73845828464991        1.38555766229832
H            5.86775246819896        3.73495600750216        1.72938486825496
H            4.84881242092452        3.50009871617541        0.32354309261252
H            4.43246886826902        4.74097782619337        1.51388696478657
C            2.57927389755078        2.70062815912902        1.51008723113058
H            1.95458914154808        1.94907245721754        1.98195565113160
H            2.11142035700781        3.67413614330937        1.63862974710806
H            2.64905451906952        2.48003422197219        0.44751190386376
C            6.07156326631537        5.84048646064721        5.86263450878548
H            6.83539941468503        5.38916692432370        5.23589263887464
H            5.45125412499025        6.48683476164763        5.24370256253810
H            6.58009338706002        6.45248880465434        6.60528522573999
C            4.24843615712552        5.49731734909565        7.52268955102862
H            3.66354576399514        4.77757119242711        8.08638467079645
H            4.80812353588770        6.11549540437673        8.22061956124010
H            3.57004466987149        6.13087342496492        6.95571989488296
C            9.33631868515043        0.58975652429280        8.39023164172727
H            8.54605834844370        0.06563950449362        8.91812786770393
H           10.08040597118289       -0.13476245647344        8.06681026086279
H            9.80417965706129        1.29504196177226        9.07300889867849
C            9.91671702325227        2.11707626915414        6.51296041599829
H            9.56229292076277        2.73632823369807        5.69416426030309
H           10.37817755420151        2.77796610589407        7.24439276678097
H           10.67506060139518        1.43587925650914        6.13043831483348
C            7.64002791364310       -2.23238170535006        2.38727808099189
H            6.82590076677948       -2.79668871035225        2.83065259593683
H            7.60151213310261       -2.35400123920396        1.30731909054743
H            8.58266824960102       -2.63217210560475        2.75429525258766
C            8.66185183317282        0.01004660577537        2.04185004635900
H            8.58903654748824        1.08331264573121        2.19194654434706
H            9.63116095321336       -0.32617816194292        2.40634124110240
H            8.60970146255079       -0.17259049436004        0.97006763894250
