263

O            0.39733095916758        8.88077714288101       -1.15968179946777
O            1.40352270456251        3.50725651022877       -3.81708053500757
O            1.41881635783177        4.47062548744522        2.10436542555298
O            0.45923802051892        9.68261966076095        4.99906583249965
O            5.69136775843371        6.60219936918460        4.91172111617792
O            6.27086533849664        1.11603724794998        2.44874639605321
N            1.81425435816340        7.68605800800110       -2.51862976150921
N            1.03891264926043        6.72865200320191       -0.67913812607337
N            2.40362756182833        5.55423115975289       -3.50014926726613
N            1.34364430151064        4.60138660665945       -1.79647996690170
N            1.13026716449223        6.71800575327254        1.73603134079790
N            2.48503903229470        6.06639923161153        3.36598535157469
N            0.75295030758580        8.81240117542794        2.89066871955135
N            2.11265009534471        8.16082550621709        4.51486521409298
N            4.67643843084058        5.05683081686478        3.54395872012710
N            6.82504543312301        5.49973372305994        3.24833956570795
N            4.86606248174580        2.93766508191584        2.40845184552703
N            7.05905782343006        3.27181960983997        2.33624840251410
C            1.03557644341811        7.87448413874408       -1.41370591717728
C            1.69230863167681        4.45147530547685       -3.10642512705653
C            2.60354913956675        6.47029453110418       -2.41701754007981
H            3.66219461489923        6.72405251897893       -2.28740609981777
C            1.96578262337019        5.75388477127869       -1.20071376864478
H            2.68533534817196        5.45403322065621       -0.42505507558439
C            1.66443727328905        5.63705714527689        2.36722838141825
C            1.04378076662985        8.95220830723230        4.21717454375411
C            1.69477735968240        7.96343418317058        2.21553351285161
H            2.18522072636619        8.48968670364529        1.38452967490890
C            2.64362048810960        7.50669329907816        3.35228713479399
H            3.70119855667448        7.75491015171315        3.19657582248546
C            5.72097809195350        5.81914101209107        3.97856509318018
C            6.08462045846849        2.31798318759222        2.39851789922848
C            4.99191373946518        4.36215869986211        2.30856679827493
H            4.39753413408085        4.76756666745022        1.48022109732574
C            6.51614479622371        4.59341045484219        2.16734776947950
H            6.82113521721875        5.02639070662759        1.20398408107236
C            3.18044999164185        5.53200940026365       -4.72385110014776
H            3.50239755850580        6.55257583311546       -4.94618134858152
H            2.51093378135623        5.19481612141864       -5.51993835021191
C            4.38752021341080        4.62304795133959       -4.67951792708702
C            5.16068190227879        4.46854547435377       -3.53503096699876
H            4.89649787901071        4.96625660730386       -2.61191759291162
C            6.28230355501006        3.65376413038183       -3.54873235300797
H            6.86365874091045        3.54278377209297       -2.64454153513495
C            6.64773471979112        2.98219214387863       -4.70129677529757
H            7.52418921502600        2.35288651323277       -4.70785865802072
C            5.88108111302656        3.12878458252463       -5.84532872024839
H            6.15581130670667        2.60630221284036       -6.74919660739454
C            4.76120098711449        3.94050624439992       -5.83213803518615
H            4.16518047216419        4.04952549172847       -6.72571749793706
C            0.71147405074096        3.53952334702958       -1.04216582268402
H            1.19735523354555        3.46166381065696       -0.06616185148875
H            0.89122314723064        2.61416637273422       -1.60193324826906
C           -0.77434935134090        3.74087446396382       -0.87332453328254
C           -1.38493355177641        3.44433867098995        0.33979113113675
H           -0.78002410803095        3.09061184692855        1.16228679016657
C           -2.75055235475056        3.61191716510844        0.49536918991715
H           -3.21392409363027        3.37915796276049        1.44256371242884
C           -3.51739091170934        4.08020333323185       -0.55809946888364
H           -4.58196824879489        4.21281512881199       -0.43623460410357
C           -2.91442612161553        4.37866298588275       -1.76872734810823
H           -3.50786033819882        4.74149654842808       -2.59492900276256
C           -1.55061013795922        4.20586031734379       -1.92731899251690
H           -1.07867588411442        4.42394424053031       -2.87395325995437
C           -0.24290058089422        9.62173488075329        2.21567795342614
H            0.12220809904048        9.85057588396707        1.21128848659283
H           -0.33434896725588       10.54983985372091        2.79227829498981
C           -1.59435785781050        8.95268757310353        2.13817109266903
C           -2.17010581062314        8.40051130540561        3.27557933037339
H           -1.64628167260452        8.46781363637978        4.21704994804812
C           -3.40760984093271        7.78564910759543        3.20609019062961
H           -3.84400092319057        7.35865299669207        4.09697525769854
C           -4.08694098443349        7.72446019378215        2.00051531043541
H           -5.05319970240553        7.24559455203761        1.94739803958144
C           -3.52503025292718        8.28301391836457        0.86538514901907
H           -4.04990567804978        8.24094404019542       -0.07729274593057
C           -2.28334213257609        8.89263451810243        0.93255962778720
H           -1.83856393953973        9.31944364832342        0.04519271402629
C            2.75473983440185        8.15869289077555        5.81290195323341
H            2.51202064646064        9.11986345762811        6.28092540500768
H            3.83536961888917        8.09361662347917        5.66747135361577
C            2.28684198618605        7.03920850635753        6.70983166820226
C            0.93694711161154        6.72933004709100        6.81430393183997
H            0.21900134369456        7.29752093830864        6.24218480803251
C            0.51475884852720        5.71141945144054        7.65114124288247
H           -0.53751104391576        5.47918375408424        7.72365271138031
C            1.43742624727475        4.99769573512470        8.39816643379375
H            1.10652624957498        4.20598583276456        9.05379882432027
C            2.78448492479333        5.30434557780906        8.30337077854495
H            3.50921063044335        4.75234252638114        8.88328008416620
C            3.20833276650642        6.31850738136129        7.46099173094310
H            4.25969419095289        6.55371470773599        7.37611157845308
C            3.64495743109232        2.19070885089508        2.16626109088564
H            2.80264488991375        2.87738434525607        2.27429904921058
H            3.57475594657885        1.41172297892339        2.93051357402187
C            3.58889202481623        1.55684555460228        0.79751111360698
C            3.14009655488230        0.24995508389362        0.65757073511246
H            2.87062462423467       -0.31424033773745        1.53788439735538
C            3.03951775259591       -0.33242141076760       -0.59366533891621
H            2.69068469581673       -1.35009132628124       -0.68580969135201
C            3.38777266322147        0.38681037878762       -1.72411836469994
H            3.30773592846306       -0.05781586378056       -2.70455420751847
C            3.84058175877713        1.68848112187943       -1.59483947446940
H            4.10988260492190        2.25805590161157       -2.47207401764320
C            3.94081249506796        2.27030870898810       -0.34244578007525
H            4.29974146997239        3.28819740614678       -0.26054928865492
C            8.45643467189167        2.93793515487760        2.15328033332909
H            8.88660561670743        3.62762139989640        1.42262520854505
H            8.48035936071470        1.91807470460517        1.75128104203321
C            9.24512361455538        2.98287634652561        3.43900256696499
C           10.50600048332088        3.56697725700352        3.46810617987444
H           10.90866171970918        4.00188847174940        2.56460266110085
C           11.23673363352912        3.59923435933216        4.64397391410246
H           12.21557958871353        4.05543593005967        4.65449844648526
C           10.71184142258775        3.05123056801403        5.80209801364895
H           11.27991523019774        3.07796037215010        6.72000181309768
C            9.45630063278913        2.46622501893948        5.77914098845043
H            9.04399258527276        2.03296551772047        6.67840706385908
C            8.72804760998467        2.42837876846974        4.60306226824393
H            7.75487837031010        1.96095657417688        4.57714340094450
C            2.03140818835857        8.73354820109316       -3.48085760629578
H            1.19686076152707        9.43185769468221       -3.37264116094530
H            2.04451616890421        8.31071343187032       -4.48941584661526
C            0.31406189404306        6.59156470074993        0.55753380097143
H           -0.45192168826137        7.37022949580934        0.56057851879005
H           -0.14957318799036        5.60234838990250        0.59980490796070
C            3.35298458576551        5.17808482353035        4.09614217028715
H            3.46965402841492        5.55323348864961        5.11583596857313
H            2.87241040591855        4.19683887561823        4.10465545095461
O            9.49209678738949        5.85701405796762        0.96881972131712
O            9.70401789718045       11.16729021146409        3.83205876638442
O            8.77209448895170       10.32380003665625       -2.21463652344735
O            9.25025816632315        4.98727881880714       -4.99996365615798
O            4.37191012066072        8.49225841361933       -5.09576462275043
O            3.90260771952991       13.76818868750931       -2.25942610021870
N            8.35659298383404        7.20067630088701        2.44315149980063
N            9.18195743186347        8.10184382147588        0.59728225972135
N            8.33408324322671        9.33797770014755        3.56208950234457
N            9.33199827348104       10.20839764243166        1.77718417499916
N            8.91496998177787        8.06816662902419       -1.80729810527971
N            7.53832743453304        8.78291072774332       -3.38840351374052
N            9.08685529881512        5.91901073690264       -2.90401669521257
N            7.74865163746964        6.65436819149982       -4.51024219992834
N            5.42077766315376        9.90932647650459       -3.62128716400736
N            3.27596027241851        9.44024244037851       -3.31700771173917
N            5.27686195388970       11.92271083089786       -2.29849518685739
N            3.08015722677272       11.62079044768626       -2.28314334342057
C            9.04349321393244        6.94493179029262        1.29724812595946
C            9.17196266612378       10.32938908211354        3.12725273539459
C            7.82816412305379        8.55611531755641        2.47036169231724
H            6.73371684330545        8.52452025973536        2.46322549452953
C            8.47287589378373        9.20050924026723        1.21708694203761
H            7.76294416447759        9.63448838792140        0.50045550337505
C            8.42931312042071        9.17458432253708       -2.43180950893960
C            8.74674146155993        5.77331777320769       -4.21787977507698
C            8.23734015152193        6.85974182247858       -2.22819234157614
H            7.72509731183289        6.39404843257228       -1.37502969277076
C            7.28966616152704        7.35936856082295       -3.34745213228612
H            6.22360731738216        7.16072467189904       -3.16420180003770
C            4.36018463287420        9.20190470056076       -4.10293573858662
C            4.06858707333984       12.56192815417656       -2.27618454297399
C            5.12963468040798       10.49747311573439       -2.32047328047362
H            5.73764664588432       10.00398280650957       -1.55183311214659
C            3.60061369267272       10.28267955931290       -2.18733284229517
H            3.27861886666489        9.79240705848627       -1.25873427788657
C            7.69034805604507        9.41044688775931        4.86776837897000
H            7.24251428696415        8.43953191436932        5.08178947969249
H            8.47610635974505        9.63042919757207        5.59419709654398
C            6.62448519425316       10.47620562364081        4.92150460482038
C            5.35486960116488       10.21235099346938        4.42005488169991
H            5.14650347842411        9.23841547397249        4.00003154759727
C            4.36431394594028       11.17912207223639        4.46369108955459
H            3.37895007276035       10.95936546514083        4.07796808102031
C            4.63698472866993       12.42353088443363        5.00792965097653
H            3.86289212141129       13.17513017088640        5.04520213746177
C            5.90237582847828       12.69737906686175        5.50011467079248
H            6.11829661554944       13.66822540891156        5.92040352844398
C            6.89181389405038       11.72969620908566        5.45668677277609
H            7.88240927779660       11.94339404999558        5.82880285188974
C           10.00023320790456       11.21883016350996        0.98307497778480
H            9.40863053974225       11.39798649977662        0.08123266506146
H           10.01113342090759       12.13168595464118        1.58945838777471
C           11.41671518189541       10.84768386774568        0.62102869780735
C           11.88181263036791       11.03180513389262       -0.67578113643134
H           11.21080260485419       11.42080118548691       -1.42848551399101
C           13.18917484255194       10.71206386651166       -1.00203209354796
H           13.54006796746202       10.85897156604168       -2.01265127767572
C           14.04171181111604       10.20421392759909       -0.03663226492086
H           15.06110153880869        9.95552718022961       -0.29123528133905
C           13.58293448793881       10.01536045498428        1.25658683673877
H           14.24401702223817        9.62165115507240        2.01448324077837
C           12.27846931291396       10.33958851644933        1.58519314379504
H           11.91999106144536       10.21012523218273        2.59554999148049
C            9.99704090950263        5.00865643313424       -2.23334236060763
H            9.65000313835527        4.86968860320560       -1.20702289900710
H            9.94103900290439        4.05548759967549       -2.77183381533348
C           11.42777653499670        5.49141293415314       -2.23647026154681
C           12.03985433371260        5.86522598840479       -3.42668425416242
H           11.48278230166918        5.79702662419063       -4.34862487428469
C           13.35319869042356        6.30045337120408       -3.43184755301366
H           13.81769164259264        6.58850742941120       -4.36337125762406
C           14.07231042027891        6.35678948721128       -2.24925066239897
H           15.09860258983273        6.69215634447499       -2.25495715418828
C           13.47291373522915        5.97570519524883       -1.06115826500145
H           14.02833941382372        6.01357524909570       -0.13590716230389
C           12.15606858804598        5.54685398273634       -1.05416059544289
H           11.68375007467540        5.25493956036058       -0.12741037878094
C            7.09252275896966        6.68437274130588       -5.79939193295290
H            7.25413307592581        5.69814281336749       -6.24945309960080
H            6.02158739742795        6.83205683523721       -5.64459847298770
C            7.63549390160258        7.74776395695407       -6.72253664664220
C            8.99841757382392        8.00751513130697       -6.78803798371683
H            9.67453084040955        7.44487922823751       -6.16213604740467
C            9.48708727177741        8.97155820311617       -7.65239971593379
H           10.54879257480179        9.16517758121032       -7.69315066092635
C            8.61904763978883        9.68067607338932       -8.46608984699112
H            9.00154235625470       10.43029797103756       -9.14271365717154
C            7.25937319468240        9.42389225361172       -8.40962767058372
H            6.57675475348373        9.97336790424230       -9.04079503869151
C            6.76890858981989        8.46434878709985       -7.54022584088071
H            5.70748625246127        8.27223673465595       -7.48149848477419
C            6.51968665420856       12.62604119857940       -2.06529773045533
H            7.34173250981902       12.01079163393675       -2.43919997574000
H            6.47542720904715       13.55573156567208       -2.63928237622768
C            6.80619521883595       12.94608004162037       -0.61732696487241
C            7.65663999727601       14.00568882019746       -0.32070640699761
H            8.05426128486026       14.60381537960714       -1.12684022919604
C            7.99742253547179       14.29548643668351        0.98798623189662
H            8.65940676182165       15.12141232391547        1.20047686182755
C            7.49299588816151       13.52636013646598        2.02374031181843
H            7.76183259654601       13.73499627786146        3.04766045707294
C            6.64180013512182       12.47424924670196        1.73827806704954
H            6.24289957847081       11.87078375832324        2.53893083903609
C            6.29864039515609       12.18646258195609        0.42738916050677
H            5.62600709063288       11.36378984876628        0.22736585524266
C            1.67977839876482       11.94846890263609       -2.11731836018532
H            1.23119288770612       11.22399867830952       -1.43185414106337
H            1.64607790579919       12.94749072977398       -1.66711918509338
C            0.92409904757586       11.96561332019045       -3.42345088311673
C           -0.32121868424053       11.35674460166567       -3.52279133226600
H           -0.73673369627530       10.85599385474472       -2.66012790626219
C           -1.02038186382952       11.38423872294862       -4.71797446677159
H           -1.98793647713640       10.90898452131764       -4.78344355066100
C           -0.47879148495676       12.01569843294719       -5.82476869219257
H           -1.02252411637107       12.03528653003899       -6.75753476741231
C            0.76219077396030       12.62441023447680       -5.73147526930527
H            1.18768820824976       13.12206681494017       -6.59038780519433
C            1.45852424442912       12.60331747504090       -4.53590940268567
H            2.42010342114154       13.08841947427219       -4.45479579036441
C            8.08945056380516        6.16871426944378        3.41016502843035
H            8.89234411174837        5.43215399426199        3.31377229544912
H            8.09140066969928        6.60010180886709        4.41284735636714
C            9.82010604297252        8.15593021692711       -0.69132379411746
H           10.52488276514849        7.32191365152694       -0.73618202372900
H           10.34878204956709        9.10676556693737       -0.78883717802635
C            6.74833284778099        9.71838488041731       -4.14499493516406
H            6.63164334585060        9.35488350967106       -5.16976813717789
H            7.28909612422768       10.66732303743347       -4.13954775386668
O            3.78345219231146        8.01585518324588       -0.14181669943357
O            5.17623575761466        7.31952515786960        1.58005861433952
Cl           5.04186754673764        7.41206567494525        0.16428928717248
O            6.09378988983005        8.21164136623162       -0.37548950576124
O            5.09901419802701        6.10646181998773       -0.41217228336865
