77

O            2.00917801710051        4.62204224922851       -2.73939605780174
O           -1.04011909764856        4.23934316266040        3.57093511205426
N            1.90217101460550        0.17056257413300       -4.41354903906834
C            1.15680136069975        0.05660283496980       -5.68501174254886
C            3.33707913384518        0.32444250154505       -4.73418338679844
C            1.40589590910347        1.36761001890662       -3.67941572940977
H            0.41021640233249        1.14448886009714       -3.29447026442272
H            1.32311949534334        2.19611499397164       -4.38481866554170
C            2.28282843202541        1.82880714389404       -2.49941133457686
H            2.61814788429838        0.98595771709339       -1.89518750352205
H            3.14341243739868        2.39745044944701       -2.86015545586760
N            1.52669724728946        2.70388101093446       -1.63958741747618
H            1.01552734579917        2.31776500688520       -0.85927890311485
C            1.47899929143036        4.03758564513292       -1.80757543403370
C            0.73369343403183        4.74735175171839       -0.71770540667265
N            0.39183487210635        4.02327900630728        0.34210099220008
C            0.46721898857114        6.11042809317479       -0.81782152182052
H            0.77452611309067        6.64324770317309       -1.70348229680045
C           -0.18255505749581        6.73739176004866        0.23364780279999
H           -0.41094694342027        7.79152752112420        0.18888015918370
C           -0.52245412421043        5.98764852029510        1.34870155359783
H           -1.01205141117718        6.42049906654083        2.20652604174461
C           -0.21129049942358        4.63051151615354        1.35810384864113
C           -0.52305068799626        3.79034564706185        2.55924988580054
N           -0.15710197378022        2.50443736453106        2.41888101418815
H            0.20921719654104        2.22581723457411        1.52052817611546
C           -0.30793425675107        1.52933696266657        3.47069384765043
H           -0.01611782665508        2.00842153568837        4.40859818276077
H            0.36364006487160        0.70177430591431        3.24645711104343
C           -1.77803103518434        1.07416421110698        3.53612561264295
H           -2.11975296091000        0.89409955327281        2.51617992493465
H           -2.36038665456171        1.89708179766161        3.95470305436426
O           -1.99670553468710       -4.54889937677248        2.77539036908600
O            0.88712980197402       -4.27341215985871       -3.58929765838786
N           -2.03817815943144       -0.15058270431358        4.34121154267087
C           -1.36085968179149       -0.05780297416359        5.65159811599822
C           -3.49289830323257       -0.25369619027757        4.58199280112758
C           -1.54701815645478       -1.36827598984106        3.63682317216426
H           -0.52392899657172       -1.19279878627996        3.30318809042456
H           -1.53795256507483       -2.20133710940643        4.34114857003815
C           -2.36576918625742       -1.80383577799778        2.40686525468725
H           -2.64410219300456       -0.95620686666632        1.78074231073745
H           -3.25830756873881       -2.35459422832528        2.71560456250597
N           -1.56894614014492       -2.67347888044554        1.58181139067865
H           -1.03310411424233       -2.24619743431951        0.80361331569379
C           -1.47618010717237       -3.98423064821307        1.81510465869800
C           -0.69408492691498       -4.72279095074410        0.77092244807961
N           -0.40328007093747       -4.03550675938468       -0.32202769429196
C           -0.33857334592742       -6.06053172939770        0.93060722752258
H           -0.60836210161273       -6.57666266053925        1.83844325637015
C            0.34948131611557       -6.68561495592188       -0.09790131891458
H            0.64265841794065       -7.72169066896326       -0.01080908951229
C            0.64783971768240       -5.96425386345401       -1.24349358256887
H            1.16989133486546       -6.40250390862056       -2.07949371300570
C            0.24760325074907       -4.63115371230731       -1.30823090146486
C            0.49015296316472       -3.79501298753153       -2.52813060456685
N            0.20848706013540       -2.50193700860180       -2.35597976138323
H           -0.03430523863956       -2.14142463815875       -1.41391377469539
C            0.27448023357360       -1.56052432728347       -3.44323988219443
H           -0.06150707105806       -2.07083455095893       -4.34988146278424
H           -0.40740886860879       -0.74846128953001       -3.19139755762268
C            1.72471171385025       -1.06812286657874       -3.60448976029355
H            2.12395611595350       -0.89823192255983       -2.60431171953389
H            2.29619748306592       -1.87396354059449       -4.06757893062389
F           -0.28808100619044       -1.09896055433764       -0.14786891839143
H           -3.81077188509803        0.54505485155265        5.24867132255552
H           -3.71984399236444       -1.21231344421707        5.04256985729602
H           -4.04090546910278       -0.17228357121655        3.64767075968780
H           -1.59549045344944        0.89614106029547        6.11817931065274
H           -0.28475132911500       -0.14471689544362        5.53153169996336
H           -1.70521605484555       -0.86239433873610        6.29755930977267
H            3.50668434591905        1.29130924932769       -5.20241985929126
H            3.64345284724786       -0.46037807305463       -5.42232169895786
H            3.93987465045860        0.25174768487215       -3.83353327538235
H            1.43259743780804        0.87565948606785       -6.34560147845588
H            0.08628510196847        0.09455805091952       -5.50397872641800
H            1.40052710076146       -0.88666324583598       -6.16782502851420
