121

Cl           9.55844275384173        3.51251757028620        3.57126629279110
O            8.47946550363638        4.38909930807050        3.90635798940616
O           10.77180423390463        4.26129633233458        3.65902808908765
O            9.39228563199343        3.13677626251540        2.20139902512894
O            9.57806446752481        2.38474409207838        4.41128612086509
C            8.21607612291332        7.04787710634451        0.91806329023094
H            8.15088267529291        7.89322843508052        0.21618064090079
H            7.79248746526506        7.38071240608032        1.86447595757436
C            7.32428816919161        5.93365327388890        0.37372052886500
H            6.31900592903942        6.34525404145906        0.26503991290823
H            7.63894000249567        5.59941473347952       -0.61423267617370
C            6.30185102153704        3.73359098005233        0.80704192489859
H            6.57705889587691        3.43348899688404       -0.20491397176834
H            5.30143875429034        4.16900358021872        0.77770445681119
C            6.32402944673594        2.53886540311216        1.72133732259229
C            7.16388017258109        1.46529751897719        1.45629757552291
H            7.80658924267212        1.47839035677003        0.59112545577380
C            7.16934944922909        0.36235844406860        2.29032624562569
H            7.81026431524834       -0.47011599336660        2.04796486987553
C            6.32507640562715        0.31263807904942        3.39133462959897
C            5.50078660850866        1.39796058674937        3.66966121915474
H            4.82160013513689        1.37273351818464        4.50796417995523
C            5.50505132934712        2.50549404967554        2.84387585857319
H            4.84167300885853        3.32941533178775        3.05671644093662
C            6.25848445547121       -0.91760526041746        4.25809047930519
H            5.21326451354966       -1.20242330160006        4.39669506696910
H            6.77080010799011       -1.74659508035460        3.77013926441610
C            6.70805821636464       -1.84199094909539        6.50896572062868
H            6.77675213612747       -2.76216955348406        5.93053699641574
H            5.71805335850467       -1.83217801556873        6.96379986191495
C            7.76537073480915       -1.79500800235917        7.61250085858734
H            7.54498699496133       -0.95025194898851        8.26150575415454
H            7.66810580882771       -2.70413405973737        8.22073734200961
C           10.32680572511523        7.76005132354846        1.82235985614857
H           10.26755245390677        8.68895571338182        1.23444359110120
H           11.37889882350720        7.48500600837434        1.88310774305980
C            9.84710513707368        8.08085678403325        3.23643725159866
H           10.52391350217016        8.83312969129604        3.64576482160744
H            8.84644764206452        8.51127437285903        3.24861054189686
C            9.77201761729944        7.21305749682590        5.55233743174758
H           10.63491257122003        7.81634426825723        5.84190513935627
H            8.86865707754908        7.79986718673335        5.72267650480437
C            9.72891122024479        5.94241741543576        6.35690273270183
C            8.53852861361229        5.50950194853699        6.92224464054966
H            7.63892910180973        6.09194386693723        6.80185507959827
C            8.50382065503050        4.34330957589942        7.66477263057713
H            7.57575063737940        4.03864627698453        8.12212995149516
C            9.65763658542773        3.59392183705393        7.84795329043237
C           10.84537816957164        4.01370899738843        7.25832650982989
H           11.75890762337535        3.45701253377476        7.39551677295041
C           10.88057819863048        5.17947722293292        6.51918516713912
H           11.81467473823374        5.50430145349733        6.08901162189657
C            9.62976307646723        2.37574151908488        8.73170402663344
H           10.36069152388662        2.49721923917510        9.53451865221449
H            8.64467545737358        2.28234664725554        9.18998206046556
C            9.86734922665283       -0.05395693062126        8.89282121726639
H            8.91116581177691       -0.03684915249544        9.41391954005856
H           10.64141311733303        0.03461580791178        9.65607285089708
C           10.08518104583943       -1.37292635731437        8.15734322297466
H           11.08772488017605       -1.36421635463865        7.73313812459062
H           10.06322204776370       -2.17252509371177        8.91131257516806
C           10.28365031070659        6.34350959232036       -0.10669262032244
H           10.42727955409929        7.24146319876250       -0.72609056533732
H            9.64715833356592        5.66335216032724       -0.66993383060295
C           11.64343450134865        5.66690933554426        0.06636504591312
H           12.00125453193591        5.38750347078688       -0.92627007755065
H           12.38943018022615        6.33164549018695        0.49974180741389
C           12.69989986765613        3.54318565036208        0.81819423908745
H           12.86398746844377        3.25235536131170       -0.21976175180427
H           13.59349344067075        4.07261251430171        1.14272051456687
C           12.44105028910433        2.32572692262938        1.66905532710215
C           11.68001566872583        1.27369241078486        1.13199231649694
C           11.07709860699931        1.34544793825925       -0.15459262272308
H           11.20155578495507        2.21711006647164       -0.77411434291388
C           10.34169314262091        0.31600600557427       -0.65812267361619
H            9.89614120515554        0.38872163565084       -1.63919457856097
C           10.16693392575000       -0.86350823935998        0.08958780988836
H            9.58882016719420       -1.67270677888654       -0.33090430715800
C           10.73109014799532       -0.97744980638874        1.32305595313049
H           10.59348332884806       -1.90551019402792        1.85168926954346
C           11.49716769599748        0.07687219681161        1.89311148199383
C           12.05730090417668       -0.01642124769399        3.17585635296118
C           12.67247782809809        1.09537393175335        3.77172187584214
C           13.08010844570790        1.09566728396221        5.13453111109181
H           12.91955362865066        0.22692858719928        5.74958647626526
C           13.70041682364512        2.17034685415904        5.69359881374251
H           14.02496580027614        2.15106657159982        6.72330131617064
C           13.94856964243645        3.32129373476642        4.92269778029731
H           14.45766221913120        4.16036749480957        5.37274419050648
C           13.55392550361550        3.37233454217250        3.62176755057238
H           13.75521045141732        4.27449943429146        3.07166103939850
C           12.89317847901903        2.27852553846561        2.99671107421106
C           12.02826477842114       -1.33409747418303        3.90763206748990
H           12.88151033769322       -1.40120074234804        4.58118146199071
H           12.12939384946004       -2.15567856421282        3.19862034970725
C           10.81972146398935       -2.69889336984447        5.56649295746731
H           11.68589090783759       -2.62275376548579        6.22245311099937
H           10.96268266919066       -3.59309242364096        4.95903408490645
C            9.52090803050592       -2.85586736968513        6.35437884178498
H            8.72966522698420       -3.11909656647457        5.65570677522870
H            9.64063408308712       -3.70860334131474        7.03675798552501
N            9.61222220051779        6.66502038327574        1.15730317952409
N            7.26501811192045        4.76429209139556        1.27476980857267
H            7.00673190043452        5.05831457164205        2.22753625342760
H            8.19229048668996        4.30466340219476        1.37174856802439
N            6.86585698487686       -0.68387414610323        5.59393542402499
H            6.43384283409260        0.15179993964512        6.00617696714319
H            7.87469234901023       -0.49339739389749        5.49220957416888
N            9.87394409393122        6.88894482594117        4.10730062467180
H           10.73869928818215        6.34626829868516        3.95578665882122
H            9.10714682582930        6.23029534723534        3.87502529111876
N            9.94000276719912        1.12375274664961        7.99391915495134
H           10.87927065127750        1.20626295943767        7.58414996817105
H            9.28012630138475        1.02221852940989        7.21128566680631
N           11.52794559099235        4.45309500403619        0.89904667449773
H           10.69151726335023        3.91148797163440        0.63160323079052
H           11.37934661364798        4.69201518327518        1.89830365926382
N           10.77329841367644       -1.50759114352341        4.68728273936116
H           10.61078217932253       -0.66228532847096        5.25221365571971
H            9.98880766552732       -1.58532754721778        4.02767405507920
N            9.12517553684905       -1.63678444546895        7.07560230383547
