146

O           -7.75881297889987        8.24680472752443       14.16139899769260
O           -1.17064929242943        3.57136701917057        9.89933143341034
N           -4.23469874375297        8.46143623965850       13.57201894108911
H           -3.83923400557238        7.64729189753798       14.03244946494039
N           -6.06833054279683        7.61108750143897       15.56161730034881
H           -5.08296018345748        7.71058344507140       15.78543612347119
N           -4.75188680613093        7.22385742282086       17.84087999394611
N           -1.98592360273004        7.80959954428932       17.93757518104432
H           -2.23991608274094        7.30697099063316       17.09479590467731
N            0.90226509993579        5.90198812121073       16.14708779724521
H            0.58697427459314        6.20773537872718       15.24113206588383
N            1.29214220526356        3.88216407467417       14.14469853738830
N           -0.04445882307983        4.08613996993769       11.82034023108583
H            0.05556914080901        4.74582171625833       12.58335935214509
N           -1.41100916718700        6.60424021969976       11.83442773448641
H           -1.31379525963503        6.33119310215280       12.80651592117830
C           -3.53919558213688        9.22999769609883       12.69460207239743
C           -4.40151859512936       10.17604222207519       12.17032135531170
C           -5.67179995328194        9.93844343246860       12.75007090679308
C           -5.53908270011695        8.86127822956805       13.62113521659450
C           -6.56353139247372        8.21920482935364       14.44248526964736
C           -6.75014096455096        6.93953076040372       16.57143551868707
C           -6.05083148956615        6.77053324950896       17.78893233495182
C           -6.67129480326826        6.08193251718298       18.83111753517212
H           -6.12134111987662        5.91175904384404       19.74666192872449
C           -7.95621000757897        5.59257190325946       18.68774389356130
H           -8.42049469945588        5.05696145058660       19.50356734297591
C           -8.64269728941309        5.78606933383392       17.50111687840934
H           -9.64768809172787        5.40699124946722       17.38687823235757
C           -8.04150589939695        6.45068692549573       16.44466699697737
H           -8.56893520608070        6.59916394849879       15.51652651540592
C           -4.22292442515369        7.69839589213913       18.90781822943616
H           -4.81160473511416        7.87813490167659       19.81581267744748
C           -2.85110749846649        8.05238800132613       18.96796095784094
C           -2.12392869878755        8.69203197342373       19.97762500141892
C           -0.79872621961155        8.81632503457299       19.52069385453975
C           -0.74937913715889        8.24978097488531       18.25040770965206
C            0.36247187844070        8.03872706980026       17.26030476484140
H           -0.08859369380678        8.18413025360684       16.26774508031911
C            0.82712441226645        6.61150068558968       17.29281254385005
C            1.21307806059280        5.77971517577427       18.33985949874701
C            1.49917769416186        4.51873335736305       17.78657811322141
C            1.28857145592933        4.61660906149011       16.40616051202876
C            1.42142764929616        3.63101054825341       15.39778018529663
H            1.62186197359903        2.61638178089999       15.76368235254201
C            1.49858058484477        2.89116512951909       13.20038262395448
C            0.79135264500491        2.98596706659806       11.98001957452728
C            0.98690841939305        2.02265851478252       10.99849986614456
H            0.42937275568075        2.09425498921702       10.07936881275298
C            1.88786040153874        0.99071079134834       11.19448604080510
H            2.02892068075769        0.25452271457977       10.41689199668898
C            2.61700571696417        0.91504262525166       12.36875750814231
H            3.33975979825758        0.12484729394693       12.51297272111821
C            2.42154753985761        1.85687050774105       13.36030360138921
H            3.00954471907124        1.81364002112633       14.26633613662183
C           -0.88670675769305        4.38010972847830       10.77979780831068
C           -1.39674330534462        5.74596880836810       10.76819667335518
C           -1.92184484958699        6.43483565944964        9.67651101843406
C           -2.27113668414151        7.72922577643493       10.12078689677602
C           -1.95000218224662        7.79529229285293       11.46475939092734
C           -2.08751715217641        8.89402221923418       12.48002145480793
H           -1.74462302009631        8.46347119519087       13.43181816294247
C           -4.10651327037426       11.31109144231351       11.24456557560705
H           -3.03667857632892       11.44550411851088       11.12532963029056
H           -4.53606861942258       12.22926909452172       11.64413357339475
H           -4.54679801727212       11.14227866757901       10.26349429383894
C           -6.88078541795565       10.73337704025011       12.53211612239205
C           -7.38115707017860       10.93440994581750       11.24899551782265
H           -6.88747318117854       10.46753784368739       10.40913200463871
C           -8.51463702687930       11.69986410707906       11.04573248649073
H           -8.89525420743217       11.84050241445774       10.04358458469495
C           -9.16473137247201       12.27984984983668       12.12191317511844
H          -10.05096451753415       12.87779954277553       11.96417909905281
C           -8.67647642035810       12.08425693131786       13.40342655364140
H           -9.18221715002448       12.53013377304777       14.24873309933557
C           -7.54329925181721       11.31957398694656       13.60728953009024
H           -7.16336943869793       11.16692748723171       14.60795808611618
C           -2.63466815602556        9.14172095526909       21.30756627336540
H           -3.71023163538820        9.32038387309266       21.25032494770381
H           -2.15059381816031       10.08432479829520       21.57295949776022
C           -2.35647282947882        8.11527006463066       22.41760073632296
H           -1.29206182381009        7.87356817200109       22.42510554110666
H           -2.60678622949566        8.56410942647112       23.38186892422623
C           -3.15574202714270        6.83102091796094       22.23911513377255
H           -2.91142619779021        6.11690981723271       23.02289941419961
H           -2.93450512911412        6.37517209143975       21.27621876668110
H           -4.22403781593529        7.03563540937693       22.28408120653348
C            0.30751099682660        9.48378803778641       20.27244206504770
H            1.27576060605002        9.18051729989769       19.88910448360946
H            0.25297646110824        9.23721092111107       21.33028379179423
H            0.22938378700923       10.56730767143036       20.17389496952547
C            1.47529943869014        9.05772417722248       17.38458250107905
C            1.15869109486694       10.41053112180595       17.31217191319995
H            0.12569040984188       10.70493922023325       17.19645407342777
C            2.14513384628759       11.37151984580437       17.39936053968562
H            1.87908731156405       12.41772624303210       17.34421528881625
C            3.48061385796578       11.01298972530024       17.55622605226735
C            3.79400210659536        9.66314226390192       17.61347510683447
H            4.82461351005642        9.35683802371023       17.72749073087238
C            2.80589376794344        8.69607126115679       17.52577386584779
H            3.07520136189908        7.65110519698067       17.56874127797835
C            4.54175607720012       12.06827019537044       17.64824457108279
H            5.51481116130201       11.62537273879287       17.84457576821097
H            4.30873900167964       12.77241629927888       18.44567513539323
H            4.59625435895124       12.62810133026249       16.71496075773328
C            1.31073605182992        6.15309608604739       19.78144668488513
H            0.41043419056087        6.67380230311711       20.09820638218870
H            2.16002347106777        6.81474834689527       19.95204014969330
H            1.43810883094170        5.26636617275398       20.39619926514505
C            1.98412550917548        3.31993034353719       18.53346053689629
H            1.78643579856136        2.41608398605714       17.95346014346988
H            1.43170951510890        3.23498233286892       19.47310047387002
C            3.48625240725759        3.40113715280323       18.84549465665637
H            3.69092674591359        4.34404698475686       19.35532008086471
H            3.75095115321490        2.58572870664849       19.52311800432954
C            4.34074858814077        3.30942089208872       17.58785634083411
H            5.39539896554805        3.41205171453765       17.83369185742509
H            4.06914477309972        4.09419823843508       16.88515331375895
H            4.19506153598406        2.34858270561344       17.09738861680318
C           -2.03181752035565        5.94645432276135        8.30088281902948
C           -0.89960420232463        5.54398878773959        7.59865199508784
H            0.06320338443841        5.57141554844708        8.08938696844425
C           -1.00292450166126        5.10696851959733        6.29157678330365
H           -0.11607100904930        4.79317979908678        5.75868076386438
C           -2.23770534318978        5.07028845934043        5.66421479279912
H           -2.31797067869218        4.72551154306102        4.64314466376968
C           -3.36932980752219        5.47170466805548        6.35360318082292
H           -4.33674747680634        5.44079879477886        5.87172922060653
C           -3.26735284419147        5.91085255664202        7.66135250258753
H           -4.15190489156576        6.21410872361191        8.20375432067715
C           -2.85648573287145        8.80516592735826        9.27112877204040
H           -2.39190689779255        9.76329558636983        9.48863275909051
H           -3.92528562595977        8.89434115166730        9.46351995563757
H           -2.71416741062679        8.56714401435068        8.21934703775936
C           -1.20977501045431       10.10122558970896       12.22870372398125
C           -1.32672461532964       11.20149956244189       13.07304155121633
H           -2.07118267758672       11.18660429805901       13.85612922718119
C           -0.51325185186136       12.30704595655716       12.91027829173520
H           -0.62010568305316       13.15367633451211       13.57273640481707
C            0.43700190609473       12.32841755201446       11.90192229957519
H            1.07237512693921       13.19213912718050       11.77209018812217
C            0.56997926226241       11.23321380653775       11.06703233508375
H            1.31250682251557       11.23630329952067       10.28201869164005
C           -0.24378604775469       10.12399140402077       11.23256125952928
H           -0.12466442118878        9.26985908505389       10.58276486612057
Br          -2.38637810464462        5.94430550581500       15.00983532539107
