259

I            5.14778371417735        7.38258698244808        0.00060729158803
O            0.49147766501242        8.90322782237463       -1.12659712799183
O            1.17907284865004        3.52128152005536       -3.80426451436345
O            1.42867470558126        4.51040237111192        2.22076650306392
O            0.89221735915597        9.85651885093541        4.93505405237291
O            5.86209973482996        6.36454128737239        5.05065140571897
O            6.27629698046048        1.04842768326917        2.35448460898340
N            1.83718995340031        7.66577995868492       -2.51872311444969
N            1.10607449463117        6.74259208878278       -0.64414988022696
N            2.30113999102362        5.50894231212939       -3.52030005386333
N            1.27047522143098        4.60227341374657       -1.77624718500840
N            1.27767687702144        6.75436176364674        1.75373197720055
N            2.65700423140555        6.08557830786494        3.35361247527397
N            1.06133234588750        8.90673859624225        2.84773156189494
N            2.44480131445143        8.23535367549206        4.44140385133789
N            4.77944347293910        4.98294918408439        3.56744778470525
N            6.94006746101607        5.37696141163392        3.28213549420225
N            4.91593946895308        2.90453175911606        2.34733538236884
N            7.11272162463729        3.18846114680514        2.25946266996946
C            1.08579797301984        7.87414559722126       -1.39994515226277
C            1.54791966432297        4.44532244432536       -3.10394991040814
C            2.57898861703555        6.41653323301988       -2.44950723239468
H            3.65027527364509        6.63580670626049       -2.37322989975475
C            1.96321291137174        5.72548735009708       -1.20764759972099
H            2.68976137869314        5.39143569525864       -0.45237774838326
C            1.75699625980406        5.66778477333211        2.41875352846735
C            1.40915515916993        9.07486924844690        4.15697268554751
C            1.92383397112706        7.98095170379520        2.17087779180591
H            2.40804415116174        8.45777674006446        1.30722719198147
C            2.89181555042589        7.51267852306451        3.28696203811659
H            3.95547808046997        7.71150539439934        3.09379116294426
C            5.85917699680167        5.64937993293723        4.06309505162695
C            6.11845492051476        2.25479257410888        2.32508255728845
C            5.07217439138728        4.32745209130658        2.30354495141583
H            4.46977927859079        4.77537948318967        1.50268084954134
C            6.60269607834526        4.52765039155679        2.16230453659860
H            6.92503187054939        5.00305611374562        1.22487525873158
C            2.97977015124448        5.50014745944700       -4.80110160155565
H            3.31679543388554        6.51701105009632       -5.01913601060586
H            2.24588709911147        5.20032414458137       -5.55354640981462
C            4.16981758716579        4.57167813580076       -4.87074377264798
C            5.01679974697283        4.37648977178121       -3.78772895987860
H            4.80285861873603        4.85098542054269       -2.84103908319228
C            6.13175461602270        3.56162599594598       -3.89720756818565
H            6.77612420287406        3.41800378276306       -3.04151175461981
C            6.41783003097143        2.92972592733098       -5.09408111134656
H            7.29244583924053        2.30304535574735       -5.17711276405835
C            5.57673980389602        3.11411612997473       -6.17894581011873
H            5.78941538872155        2.62068721782188       -7.11544663028170
C            4.46271697493466        3.92678142475231       -6.06655105704430
H            3.80938443452387        4.06531694889722       -6.91493863653605
C            0.62785746757773        3.56834138499928       -0.99285633315174
H            1.15276193275440        3.47181871941686       -0.03847214934367
H            0.74705564805113        2.63561687313003       -1.55610488063359
C           -0.83992871456082        3.82756263430553       -0.75992322891747
C           -1.40585925984421        3.56790411405420        0.48293360038093
H           -0.77886519315969        3.20122921858213        1.28305436577073
C           -2.75556248858059        3.79061411954969        0.69720960869496
H           -3.18433300619082        3.58737660477441        1.66721995316747
C           -3.55084533194921        4.27653103608974       -0.32678338024683
H           -4.60280612966499        4.45248641043411       -0.15883294024705
C           -2.99251087173305        4.53726844670626       -1.56718359376369
H           -3.60822938031056        4.91311459628352       -2.37105073053342
C           -1.64482805971568        4.30983724898211       -1.78422279272644
H           -1.20843923579062        4.49831287635814       -2.75411195584872
C            0.05553863446712        9.72017668621904        2.19299233066312
H            0.36984202264812        9.89559301455982        1.16105377403068
H            0.02731728205918       10.67347185846313        2.73341940583549
C           -1.32005518629648        9.09754467516174        2.21650429842184
C           -1.84320590649349        8.59144295794796        3.39977242474557
H           -1.26116329593453        8.66145034424705        4.30616435484011
C           -3.10298634592842        8.01981674787337        3.42094483529710
H           -3.49742242185636        7.62850162015914        4.34714807453691
C           -3.85751703912286        7.95620738455836        2.26112441655586
H           -4.84077033244396        7.51025796146633        2.27849010853785
C           -3.34870955945464        8.47054111913089        1.08099059700632
H           -3.93217165826443        8.42776467990403        0.17330611544174
C           -2.08530953298995        9.03698659832826        1.05770180618486
H           -1.68280893272869        9.42917003783975        0.13489413982831
C            3.11938660832959        8.22808486908675        5.72088954196186
H            2.95282833070664        9.21689929698679        6.16298742442871
H            4.19032390030287        8.09403878710358        5.55042145413636
C            2.60706329600555        7.16847978662808        6.66563406508352
C            1.25107803422552        6.87893104253527        6.74672353582007
H            0.55652049645904        7.41702394683302        6.11938969015163
C            0.79103746433612        5.91671579521047        7.62863188170684
H           -0.26566174004789        5.69954212839839        7.68052565925245
C            1.68151518358085        5.23938759448861        8.44503381085755
H            1.32147740256566        4.49065168093626        9.13484066567118
C            3.03443469629878        5.52688202075732        8.37417895779452
H            3.73422551700365        5.00230358728990        9.00776363409459
C            3.49608230069472        6.48463357131525        7.48730981602273
H            4.55242291735211        6.69944714346674        7.41676123263183
C            3.66434049152418        2.19910331046832        2.16540479769953
H            2.84690294511961        2.88268521320101        2.40760274656172
H            3.65063900860408        1.36338516009159        2.87078501829558
C            3.43878040942834        1.67213125947222        0.76783173484627
C            2.56027258585062        0.61017405631501        0.58589945494541
H            2.08944587030471        0.16131059124568        1.44794743792446
C            2.28456281189651        0.13024044427504       -0.68122646947662
H            1.59836206466806       -0.69397413650274       -0.80637521801360
C            2.88802919973066        0.70432549268416       -1.78807404104257
H            2.67551007770142        0.34002405012547       -2.78161590572563
C            3.76701617807194        1.75864243876873       -1.61688999183326
H            4.23791147140694        2.21242003473423       -2.47620322739216
C            4.03789113114130        2.24071907803200       -0.34680895006084
H            4.73090076852126        3.06212612468290       -0.22639275806763
C            8.51056670908456        2.83842564771804        2.12516328427555
H            8.97855382053791        3.53523268925349        1.42413001099119
H            8.53475395835246        1.82696220751881        1.70306021293565
C            9.25518553614809        2.84678651612001        3.43811185446311
C           10.53851751379116        3.37651585551763        3.50997786087628
H           10.98903081394882        3.79612862484784        2.62206340074677
C           11.22940822330150        3.37841681925881        4.70988026729386
H           12.22573955151331        3.79290628803602        4.75342810124112
C           10.64239337874138        2.85539147002763        5.84968788596382
H           11.17900157605743        2.86027766479112        6.78677590554298
C            9.36501592483661        2.32380921348486        5.78376678070148
H            8.90345535416179        1.90988900376728        6.66815297373323
C            8.67635549680091        2.31529593428178        4.58344134284840
H            7.68582520309781        1.88852505842446        4.52685534260194
C            2.08470289159018        8.71849953846697       -3.46736479701639
H            1.27614439157992        9.44382678304309       -3.34802278149958
H            2.08449065932585        8.31342122868880       -4.48194651291879
C            0.40978246457520        6.63299133228009        0.61150467415559
H           -0.33815095084343        7.42864833444639        0.62981064855053
H           -0.07208502794879        5.65534513989775        0.68428234742937
C            3.46175431489798        5.16835486065303        4.11718786226443
H            3.59728085641966        5.55360953268783        5.13101665092703
H            2.92689566954666        4.21646699098791        4.13994978339663
O            9.80468951038665        5.85549875127214        1.12637636411157
O            9.11430842683898       11.22905410193310        3.81914010279025
O            8.85781651336101       10.25051850590540       -2.21441865384414
O            9.41618127922492        4.90428046407926       -4.92758169360158
O            4.43650984184702        8.37604010650236       -5.04485742486065
O            4.01017236261147       13.70837356764793       -2.38901085867785
N            8.45565692052694        7.08500241221211        2.52203559553983
N            9.18779905862914        8.01744068587809        0.65254261642094
N            7.99838872006615        9.23808555399391        3.53357486812661
N            9.01646943732371       10.15548997800835        1.78755587492308
N            9.01439606398637        8.00741862879141       -1.74550786109354
N            7.64021702336167        8.67038937889926       -3.35215886305217
N            9.24375641357478        5.85729552298881       -2.84206092015901
N            7.85635841458640        6.51927942532955       -4.43640012001774
N            5.51547196311387        9.76850439333100       -3.56930421448022
N            3.35605844773051        9.37016913911943       -3.28157310528153
N            5.37407736655022       11.85505840857624       -2.36440864689842
N            3.17763572034164       11.56750676450399       -2.27934684507351
C            9.20869281029000        6.88263251329422        1.40343483931150
C            8.74547487519551       10.30624251456152        3.11719360287839
C            7.71527438028538        8.33512417711809        2.45999309077273
H            6.64327431371908        8.11766573354418        2.38711552203372
C            8.32723448092067        9.03050937268896        1.21846252367454
H            7.59882353430386        9.36275960781721        0.46428764500273
C            8.53439971330279        9.09190370473579       -2.41328334461761
C            8.89589063201372        5.68503701415291       -4.15083481271083
C            8.37552360902648        6.77818774185992       -2.16570952884179
H            7.89186110099999        6.29791836426511       -1.30360382876550
C            7.40756873515231        7.24289970705233       -3.28328559384995
H            6.34416716308801        7.04292582473961       -3.09039616137367
C            4.43748680102579        9.09669610264240       -4.06126775377823
C            4.17032600595084       12.50259456200196       -2.34980046288782
C            5.22046351259437       10.43221276982588       -2.31021378492914
H            5.82316622989602        9.99134503942015       -1.50571079044029
C            3.69014460469821       10.23020832696837       -2.16898194109953
H            3.36737911672097        9.76279213234431       -1.22770981520066
C            7.32205453905085        9.24351070790207        4.81534859239528
H            6.98732810265988        8.22571360268970        5.03278057533929
H            8.05695093038175        9.54311864298830        5.56699232221233
C            6.13069227193372       10.16973579233893        4.88970457884844
C            5.29711693140711       10.38962706189082        3.80113477253113
H            5.52237712312968        9.93610836861609        2.84671177803543
C            4.18141369680410       11.20281575425496        3.91542901294709
H            3.54694623059157       11.36574172098496        3.05556754601435
C            3.88136130107302       11.80846967170514        5.12231632483527
H            3.00637608229784       12.43422925364653        5.20947058983003
C            4.70890961788432       11.59898585263524        6.21310647443577
H            4.48570265763992       12.07129473889617        7.15792280228418
C            5.82348655239352       10.78785170380111        6.09618466232540
H            6.46627205634759       10.62913834068164        6.94890601331243
C            9.65094588401759       11.19465165885937        1.00426084090701
H            9.12322494619003       11.28900510183412        0.05118829603215
H            9.52731861320025       12.12603922375180        1.56878574063130
C           11.11961825255974       10.94461249231471        0.76763140661143
C           11.68066900651408       11.20541957261559       -0.47722744949590
H           11.04911340090639       11.56694074423483       -1.27600348243064
C           13.03104160808981       10.99003927027003       -0.69481862456416
H           13.45544120128681       11.19408758833561       -1.66659504748346
C           13.83187943774078       10.51042790202169        0.32778530461461
H           14.88434767230088       10.33997774957675        0.15677097495560
C           13.27855728146173       10.24898409063446        1.57026045387726
H           13.89868142637850        9.87818375837653        2.37317229403331
C           11.93022949603280       10.46907459993163        1.79063108966806
H           11.49764208071182       10.28011017678510        2.76208424832618
C           10.25213415007893        5.04769867600464       -2.18649259257649
H            9.93776626800004        4.87093640825575       -1.15481911627815
H           10.28465778158234        4.09464010622261       -2.72710977501685
C           11.62524735681038        5.67609023415654       -2.20877123322239
C           12.14654948862266        6.18609598334106       -3.39113550854560
H           11.56516208048039        6.11506818327177       -4.29795120914032
C           13.40393231791877        6.76302658450808       -3.41110676933870
H           13.79730234141956        7.15731026247862       -4.33647611859697
C           14.15780065208719        6.82817054739903       -2.25091762613164
H           15.13913673899537        7.27811794452797       -2.26725584151310
C           13.65073153349863        6.31007739302039       -1.07165255117409
H           14.23384779269237        6.35421407515839       -0.16389026715475
C           12.38970781318151        5.73827860217504       -1.04959829933902
H           11.98869149236936        5.34322240903226       -0.12733915991474
C            7.17936917137892        6.51938254439162       -5.71481218231378
H            7.34722103825913        5.52909536447461       -6.15310819509145
H            6.10851200466977        6.65191879296584       -5.54277458363652
C            7.68758327216457        7.57634194838788       -6.66464254138129
C            9.04328214601424        7.86548899717610       -6.75210642600875
H            9.74032050157865        7.32840570047991       -6.12673158326767
C            9.49977377024602        8.82583331840744       -7.63785104652278
H           10.55630700173709        9.04277439610951       -7.69469275482217
C            8.60599639525107        9.50170416009256       -8.45184497707831
H            8.96302849493818       10.24924130559233       -9.14460148266254
C            7.25338546400793        9.21439992831062       -8.37493808441449
H            6.55075260638043        9.73750249991197       -9.00662260028993
C            6.79528490876486        8.25848944594667       -7.48421690472441
H            5.73932455019160        8.04363176045409       -7.40879689542166
C            6.62409568517469       12.56381536020944       -2.18529369619210
H            7.44310260285031       11.87977755373437       -2.42089055582097
H            6.63793705465888       13.39444315407589       -2.89666822113873
C            6.84641459565619       13.10093105501047       -0.79124007155523
C            7.72688430917939       14.16222022654697       -0.61486317986391
H            8.20076705563939       14.60323567338724       -1.47911124066916
C            8.00036861890585       14.65077856496804        0.64941480275986
H            8.68825665339714       15.47425973638108        0.76954647676563
C            7.39259850403092       14.08628499475264        1.75882864683817
H            7.60419669186205       14.45801343476380        2.74995689675125
C            6.51118598618642       13.03311370662088        1.59315001613737
H            6.03694309133739       12.58706621137716        2.45488353326648
C            6.24254107902319       12.54234632192294        0.32593856831588
H            5.54781506321409       11.72177768028844        0.20933098423133
C            1.77937953360145       11.91650466040468       -2.14493624846083
H            1.31315244272102       11.22206306424339       -1.44042197970376
H            1.75420984796566       12.92982573825513       -1.72738307026263
C            1.03345442715973       11.90144308583838       -3.45726178886847
C           -0.24849140957654       11.36814087171538       -3.52607144125968
H           -0.69744087463806       10.95037584326395       -2.63643213583580
C           -0.94050000689744       11.36051751544139       -4.72535351634437
H           -1.93579521479347       10.94348279437329       -4.76676622243931
C           -0.35593808518195       11.88137252049844       -5.86742187234250
H           -0.89351415536874       11.87212504203791       -6.80377511314531
C            0.92015181282500       12.41648343847572       -5.80444103132643
H            1.37938176180310       12.82876848355558       -6.69073332155675
C            1.60990470600198       12.43069313685289       -4.60479470278073
H            2.59933432183246       12.86048207772474       -4.55078774767139
C            8.21115641517594        6.02924552822395        3.46787582175273
H            9.02011750899470        5.30500816249666        3.34469257237677
H            8.21267167699517        6.43073856746201        4.48387006277175
C            9.88243165089765        8.13139330943372       -0.60364246688763
H           10.63384410724949        7.33903302019222       -0.62330886335820
H           10.35994741702971        9.11122169377879       -0.67557564972087
C            6.83370773462896        9.58416448796180       -4.11811271373441
H            6.69955238514068        9.19564052464760       -5.13086506595201
H            7.36640089246671       10.53715818165786       -4.14331702044212
