117

O           16.33083570384044       -3.84380502848422       16.35931260449966
O           16.52241387473858       -5.60314168901935       18.77161350284281
O           16.95085351521237       -6.35332761805758       22.26455867342420
O           13.88241415100523       -6.30749839864998       23.03235078734100
O           11.30769266888788       -5.13520425205048       23.87769055553600
C            9.91239214152849       -3.46562578187371       22.67883605791046
H            9.19287835420338       -2.69108750068211       22.97454136577413
H           10.87488719266475       -2.98983156247721       22.44550732834026
C           10.08441845133509       -4.44516892676927       23.84876543278084
H           10.05948198762787       -3.88676802094377       24.78682911470730
N           10.81706921366949       -2.87414166755758       13.42144325322491
N            8.11817713200640       -3.00413184174961       15.42018039616423
H            9.02526766439524       -2.90063080342860       15.85127307102753
N            8.92736868806710       -0.05224825454253       16.69814518386685
H            9.61237843232340       -0.76602224798422       16.90031217758314
N           11.59070713533073        0.10429011100103       14.67096285886200
H           11.51086868480042       -0.68068303565046       15.30066114817164
C           11.47604207583551       -2.11977151325440       12.49907558594012
C           10.84985804708897       -2.31201166526553       11.29292639234097
H           11.10651760653402       -1.86304749757144       10.35344408551359
C            9.79708626869684       -3.22276186507071       11.50368702438002
H            9.12361714498280       -3.57835374236523       10.74873141298402
C            9.80316375962711       -3.56687321847399       12.83341740647499
C            8.91740339825970       -4.52926588506239       13.58475994924955
C            7.84874563581136       -3.76553858002905       14.32461991547255
C            6.49782157138016       -3.67952828492985       14.09395377732831
H            5.94658947141972       -4.15277318575438       13.30518190463774
C            5.94603616650813       -2.85319200655611       15.09232487579087
H            4.90864366086183       -2.59828479148477       15.18684012651470
C            6.97349946858122       -2.45377681488878       15.90953772528152
C            6.97277860779306       -1.57547861890162       17.13411271191600
C            7.58163270883493       -0.24580475598996       16.76910223075020
C            6.98094477980275        0.94556943570951       16.44686749757342
H            5.92850574268624        1.14556604507301       16.39718731830033
C            8.00360312043824        1.88020382452178       16.19605542785002
H            7.85350508309466        2.90667910981706       15.92450232434226
C            9.20590906675215        1.23920705839327       16.36983746669080
C           10.61112717273777        1.77897742227603       16.27594902664023
C           11.22765147285769        1.38452512602414       14.95817269449269
C           11.54653781119927        2.15102145611302       13.86454833340239
H           11.39115966769885        3.20566860570968       13.74808586019611
C           12.13048394252983        1.30239997777780       12.90421152715142
H           12.49119863795363        1.60752463887706       11.94157279111630
C           12.15495969092537        0.03660121550576       13.43374076329229
C           12.66212561534983       -1.25890431474373       12.85514886154282
C            9.74902770428766       -5.36188812428114       14.57496115398582
H           10.21532859990912       -4.74806667607040       15.33875076013492
H           10.53527887167239       -5.89756170972319       14.04571326772756
H            9.11033650452024       -6.08636280553321       15.07735521225545
C            8.26227438598699       -5.49655462689145       12.59116837912731
H            7.63660849706132       -6.20795568821598       13.12536209043919
H            9.03000965426921       -6.04044467386019       12.04553995299378
H            7.64559548891001       -4.95704947853677       11.87991971923561
C            5.52822224797214       -1.36459606370461       17.61920753076119
H            5.52509704540517       -0.71316393234128       18.48999585305589
H            5.08918989415423       -2.32151176032252       17.89166593662773
H            4.92818695808178       -0.91097373327309       16.83704477812188
C           10.57373719856363        3.30801442155735       16.38761241768248
H            9.99327487307071        3.73774360485761       15.57776089899980
H           11.58432096168108        3.70731682720187       16.34266676203460
H           10.12120913738272        3.59735022931002       17.33340193494373
C           11.46629366882041        1.24162174579941       17.43628537231952
H           11.01439164854992        1.51022969740277       18.38970123495237
H           12.46552194936395        1.67137935779938       17.39079625098245
H           11.56968332674743        0.16176234610937       17.40491374836613
C           13.48896923985804       -0.97138102617667       11.59024596490175
H           13.83691042488134       -1.90693778251221       11.15905611952049
H           14.35001323071525       -0.35848985441950       11.84646929607756
H           12.88789985690372       -0.44618828078900       10.85502062921257
C            7.71399149459730       -2.24140438807939       18.28423302064079
C            8.32142844290598       -1.49340458236467       19.28076294088100
H            8.33799643055474       -0.41546404764024       19.20683951820452
C            8.92008760492763       -2.09319781720712       20.37674970600102
H            9.40670553488588       -1.47035731696966       21.11222588193790
C            8.90119496352530       -3.47506978096466       20.50633878230255
C            8.28939439086985       -4.23618771372731       19.51133689870901
H            8.28677316657311       -5.31114512250872       19.61272032808451
C            7.70684568203139       -3.62569620334245       18.42185202302777
H            7.23619015862677       -4.23483618366702       17.66371075465723
C           11.50542609314669       -6.03855006955050       22.80883933320780
H           11.74676417836474       -5.50514598254361       21.88123889651533
H           10.59172809632386       -6.62711088979505       22.64447253178383
C           12.65157511780498       -6.97820838728734       23.17023408206182
H           12.51981018236836       -7.31064711868057       24.21035167500396
H           12.62349602841731       -7.85927337578864       22.50960202534484
C           14.96749972013678       -7.02212795409571       23.58498578299065
H           15.10796039787616       -7.97982947864875       23.06062901006002
H           14.76534287802049       -7.23308639232743       24.64608544639106
C           16.24628630238544       -6.18240622390153       23.47300729975512
H           15.97324270165723       -5.12771283957498       23.61415144518212
H           16.95064030107828       -6.48948033230886       24.24851559845908
C           16.28956034209517       -5.83790561938715       21.12875424105496
H           15.99514356721114       -4.79240004250461       21.29385427089872
C           17.24063890798111       -5.93040868178215       19.93839413614197
H           18.08800499793704       -5.24362198440894       20.08014585907422
H           17.63776272403005       -6.95519303501404       19.87275138467792
C           17.31503320672086       -5.62521009384955       17.60583620415713
H           17.73040174920601       -6.63329742135658       17.45286453114021
H           18.14394941328444       -4.90796660304109       17.69009763960351
C           16.44270669354342       -5.24870493629005       16.41122582290929
H           16.90247421319008       -5.62559860885475       15.48634046340258
H           15.45612553365412       -5.70988310569912       16.54401639757744
C           15.41491546654798       -3.29686736086780       15.49897929570997
C           15.24861461324983       -1.91476482913834       15.57530145131140
H           15.82466842859540       -1.36667407343533       16.30570630877361
C           14.35510044035781       -1.26858103705192       14.74744376897790
H           14.24076056771493       -0.19721320549848       14.82819559333332
C           13.59403260836566       -1.97441804843274       13.82198174716970
C           13.78688715670824       -3.34474108292250       13.73374880452092
H           13.22485229872137       -3.91762538782315       13.00966488243724
C           14.68048066984828       -4.00735851637806       14.55805212550706
H           14.78688591298008       -5.07691782566104       14.45937975125468
Br          11.34150626590198       -2.66759053915529       16.95264966500556
O            9.42103147847449       -4.17881733828136       21.56236018369206
H            9.24431378728548       -5.15577093923682       23.81812335006115
H           11.07495193404990       -2.92768458271575       14.39607769293741
H           15.37918849567953       -6.40679810544008       20.90343426841900
