161

S           -4.55883646677841        8.18063092777656        6.15225620765654
S            1.35111400482353        8.17131501856821        4.26607559502779
S            2.51435828526673        1.04842661756138        7.07384979587927
O           -5.18624677548083        7.41642712030403        5.10889116971895
O           -4.51986886935138        9.60466072661123        5.92100030027523
O           -3.96605043773407        4.96881556116450        5.15927447168649
O            0.45256914312338        4.84272695784033        4.16772011336606
O            1.07052200810234        9.54174981370774        3.91057533245580
O            1.35239024575936        7.24911034932679        3.16195236408134
O            1.22664668500880       10.25372576626993        6.66169171045404
O           -3.02188914202614       10.05053762566755        8.27597644477057
O           -3.45556131403376        2.82617247097935        7.34207061172572
O            1.78447270239464        0.04039980934664        6.34271362282187
O            3.41949826475789        0.53339796870291        8.06747578363988
O            0.34135046205979        2.03192914753242        4.98125113076154
N           -1.83660486252919        4.71079506118071        4.33207777026297
N           -0.88936444462345       10.51606816260199        7.53987038974106
N           -1.76562035387298        2.27674716951858        5.88293246825230
C           -2.78884649916649        7.70257797919528        6.20158261986775
C           -2.23344783929764        6.64754882865309        5.49447041144781
C           -2.85008876203245        5.38138281741366        4.99714249489059
C           -0.60522952970669        5.33422304621426        4.45794996816683
C           -0.88440344619866        6.64182353385081        5.11259713334781
C           -0.04835957260800        7.72098913629771        5.35525717673588
C            2.88343858815804        8.01918156832727        5.21505184822483
H            3.68810870294230        8.15350780250966        4.49601152025562
H            2.87134176222737        8.82808331039443        5.93947130712086
C            2.88714295971998        6.64017222439245        5.83118008003667
H            2.67585859016222        5.89813147693346        5.06354710376080
H            2.12144378703285        6.55656522847537        6.60141849242920
H            3.85037441944439        6.42697216062319        6.28523113105114
C           -0.56154489133290        8.68179352641326        6.21010387423835
C            0.08432353804866        9.89346588575528        6.78469207582549
C           -2.07839592924907        9.80017170382928        7.57563907690708
C           -1.88405245016668        8.65238318016575        6.65153863111648
C           -0.70625344996009       11.72921345455862        8.32629902599302
H           -1.55657498888991       11.75025459588513        9.01684880888297
C           -0.73237919565610       12.97718424770976        7.44084140239230
H            0.12066464283185       12.95347859844483        6.76033062728479
H           -1.64709609178173       12.97227353976798        6.84619724415997
C           -0.67874135258551       14.22199697771513        8.32444548208443
H           -1.56959026635533       14.25037968026755        8.95376165925322
H           -0.67798902899704       15.11129872661455        7.69457506188654
C           -1.99021397689583        3.41046405732665        3.69154220247298
H           -0.98018662730365        3.11697021032847        3.38554857520327
C           -2.55325457383632        2.36058109187279        4.65971154950066
H           -3.55647713241907        2.66226260556468        4.98005447354242
C           -2.32832367778421        2.46521582117471        7.14011226265714
C           -1.22236658625339        2.23493286866954        8.11020006722000
C           -0.03953131412921        2.10633997342705        7.37482084232735
C            1.20099445216519        1.95542117724270        7.97149575728223
C            3.36860405959522        2.20155537708585        5.97449150834234
H            4.12164211231034        1.61016212250475        5.45860622457044
H            2.61685314690125        2.55701412122705        5.27564521854276
C            3.97038967170683        3.28493986432655        6.83777332084643
H            4.53915662480507        2.83113789660144        7.64630120005383
H            3.19051219967496        3.90230974640959        7.27933436897624
H            4.62524570978395        3.91679135705003        6.24499922150580
C           -0.39540280781247        2.11426070202793        5.92943113272882
C           -2.61095657256390        1.00077019822032        3.95991049012344
H           -1.60002006988685        0.70388179354746        3.67536809831872
H           -3.00227824711225        0.25988159476506        4.65899363465648
C           -3.50389720691463        1.09343951181416        2.72516720901148
H           -4.51933302719323        1.34592710553809        3.03444985826217
H           -3.52887389917172        0.12492524216546        2.22611763247356
C           -2.98165605691018        2.15935573261245        1.76728640646814
H           -1.98823004498212        1.87808340118437        1.41444051308256
H           -3.64172612081044        2.23906134388933        0.90374656693810
C           -2.90236520003752        3.51385258799138        2.46705189508762
H           -2.50174796286607        4.26931604265621        1.78922546657851
H           -3.89562155032554        3.83128772132042        2.78872404989222
C           -5.26867559149778        7.78235722325668        7.76800207753797
H           -4.83192337550781        8.49642322445095        8.46054397291078
H           -6.33959946945557        7.94266799983637        7.67007836918323
C           -4.92671822959130        6.34128326401309        8.06868025845081
H           -5.47809631126148        5.98711489816415        8.93480050908471
H           -3.86197782354482        6.22553109833508        8.26533666520664
H           -5.18081742156635        5.71711174948061        7.21455956523150
S            4.49084996900286        8.11615568156603       11.09333194302369
S           -1.30206112957470        7.93510731656774       13.30224456490549
S           -2.63163671740883        1.40247573496908       10.41599403945360
O            5.13676462403505        7.33945747194293       12.11674997412955
O            4.45965290129792        9.53786299201920       11.34176988069845
O            3.92455705884276        4.87125275306187       12.06270203987452
O           -0.41683854233847        4.86914204762160       13.38689300624081
O           -1.56580252395544        9.34898790585352       13.33383388083506
O           -0.76507230324522        7.39565170877008       14.52833832862803
O           -1.31503045412171       10.20460778779575       10.74745720782115
O            2.88922849593098        9.99088554819749        9.04976558494793
O            3.50906165966622        2.43645036659690       10.10130753598510
O           -2.02918055324597        0.31140097499051       11.14445269937148
O           -3.61430638297189        1.00523863557537        9.44173955191685
O           -0.35865316794693        2.16705234937483       12.47927219189329
N            1.85052465434412        4.66519566596035       13.03613119648367
N            0.79483643360172       10.48132806395647        9.87320726974357
N            1.76129361967502        2.19580058265959       11.57501473107711
C            2.72067182909295        7.64002593823614       11.09268578793769
C            2.20101376579885        6.57563518192229       11.81274864867323
C            2.82978742489482        5.30746484153349       12.29053197872400
C            0.62761483017222        5.31091821259604       12.98480661656861
C            0.87770295950103        6.58600918511053       12.26508853451215
C            0.02782966058874        7.66398459992499       12.07587223584903
C           -2.76096922844217        7.02216195335494       12.74807404818619
H           -2.49302836300475        5.97314088599124       12.83359027192285
H           -3.55480416038609        7.28021824726694       13.44498020517921
C           -3.06124721321167        7.46552790125365       11.33447821671009
H           -2.30860434940703        7.08393585738409       10.64629853847786
H           -3.04996986362408        8.55232959668496       11.28272270584028
H           -4.03456886546337        7.10493541662604       11.01491633793223
C            0.48973583053571        8.63481082023300       11.20189016519716
C           -0.17343031352221        9.84773287758998       10.63629428710546
C            1.96911935192162        9.75279733656208        9.78714122691448
C            1.79655671522103        8.59900326896499       10.70650242961675
C            0.60404215793073       11.71707983582547        9.12313896526114
H            1.45382643252106       11.76247231890160        8.43310461833969
C            0.62624807741380       12.93684657687145       10.04741609540468
H           -0.22726144657671       12.88850735563514       10.72607871676325
H            1.54090693168597       12.91704342564655       10.64200905523322
C            0.56814728599695       14.20953784479548        9.20442689198937
H            1.45883551395427       14.26166820427165        8.57635819950885
H            0.56449929654394       15.07780175495796        9.86303067560427
C            2.03085587926241        3.39325380361046       13.72548539096224
H            1.03237391529609        3.11741588510663       14.08162680836476
C            2.55983783361150        2.29842360185429       12.78943240609164
H            3.56708777214402        2.56328413056169       12.44889053186557
C            2.34350232851854        2.24584407551066       10.31154078269967
C            1.21462433078145        2.11691154759793        9.34918515224407
C            0.02633384224708        2.14719338097612       10.08580528145675
C           -1.22449069471231        2.11957008923484        9.49222219492420
C           -3.32096517880458        2.65568970935947       11.52316605261465
H           -4.16431213492878        2.17324433346199       12.01197063112205
H           -2.53943068529285        2.88516506841711       12.24153535597334
C           -3.73679535754281        3.83023577707582       10.66902781230826
H           -4.30489969069381        3.47170523960288        9.81285802185168
H           -2.86173524103750        4.36056157941447       10.30003791011740
H           -4.34668081476478        4.51943118537581       11.24580832766673
C            0.38259159166001        2.16078851009358       11.53051664328419
C            2.59818391979423        0.96806847670570       13.54416980239818
H            1.58756850644923        0.71056465678295       13.86590751975641
H            2.95394448430673        0.18741298821421       12.86993911666224
C            3.52675355146009        1.09414473834533       14.74994003371442
H            4.53941455566761        1.30155499226775       14.40065349976203
H            3.53971881097461        0.15037479442715       15.29481341501844
C            3.06386551462969        2.21886021762342       15.67126137962020
H            2.07869559696722        1.97860084764053       16.07417045320946
H            3.75761224994642        2.32414476810348       16.50517267916577
C            2.98569867970196        3.54157557274209       14.91186095693981
H            2.61983726851097        4.33454092846340       15.56619704763208
H            3.97235836258765        3.82712422869267       14.54315968382722
C            5.17546141341382        7.73737077848376        9.46285908243916
H            4.66341561467047        8.40437567725038        8.77531373779050
H            6.23263655149163        7.98560687061907        9.52277588987230
C            4.93917024478921        6.26843268333348        9.19920955085225
H            5.49042042524055        5.94138865765090        8.32234245130998
H            3.88190854529223        6.06328510348433        9.04316522261527
H            5.26962265661878        5.68707478215521       10.05707211223362
B            0.05737745807250        5.70218035569473        8.78931333699663
F           -0.05584165127967        7.08506740862119        8.70860478885028
F            1.39302760360530        5.35056736271046        8.83906593464518
F           -0.54048844177205        5.13024238370734        7.67608724438467
F           -0.57115925350526        5.25339266033470        9.93727866379982
