217

C            1.75051884339859        3.32487503469390        0.76877648040764
H            1.71766697221391        2.33108164531663        1.23786495236114
N            2.97247575591502        4.01456476707420        1.08318110777117
C            3.64270793517514        4.39447818886062       -0.04693764382942
O            4.68718179694600        5.01703760080775       -0.11442601809173
N            2.95492383959267        3.93558100713041       -1.13328839728468
C            1.72755093955111        3.29427507913000       -0.77953717169102
H            1.65499729697082        2.28581861781362       -1.21265167865810
N            0.54475675180271        4.06523575822804       -1.11090741682623
C           -0.16100479409586        4.41683161771741       -0.00122770679203
O           -1.24294349558989        4.97882310667908       -0.00367692965641
N            0.55134336802468        4.06988437758392        1.10474580595400
C            3.40471917328756        4.17116951336195       -2.48575893347894
H            2.97603236131402        3.41921189799449       -3.14427168380362
H            4.49207821526177        4.10444994255230       -2.49714181706565
H            3.11433185855586        5.16776297288173       -2.82740695796579
C            3.47108928979020        4.10572424707845        2.45621688754219
H            2.90981336605045        3.35497909643430        3.02297327163197
C            4.95871380809041        3.75688775592047        2.54013818413236
H            5.13691502848869        2.76761769508314        2.12390587717824
H            5.26360286423699        3.76483962123952        3.58292670861344
H            5.54982112619572        4.48092338665080        1.98753190390474
C            3.20388395954826        5.46267516628379        3.07317007037694
C            3.49502040058071        6.63905197369778        2.39459702734608
H            3.92551768255566        6.59194834429814        1.40665277016411
C            3.24576575451889        7.86654066647897        2.98435174552286
H            3.47538569863027        8.77358579287357        2.44458888498577
C            2.70960231771635        7.93324289411127        4.25920883921606
H            2.51407785033565        8.89200575298073        4.71614150186166
C            2.42944646213653        6.76495597039721        4.94731352320618
H            2.01501045996231        6.80703491577015        5.94377363411689
C            2.67611861190500        5.53680740861699        4.35812735327545
H            2.45455882387449        4.62444959029694        4.89384118476340
C           -0.00669738441647        4.20784925691206       -2.43268069269007
H            0.77350917131035        4.52330431884072       -3.12919509035708
H           -0.79276093402689        4.96256488545073       -2.35564499922334
C           -1.74581663339859        0.98197881411729       -3.26146441625307
H           -1.70592123859995        0.07830089885558       -2.63645045155996
N           -2.97117220148400        1.04924170731188       -4.01102039320461
C           -3.64840546062225        2.21244503860544       -3.76804173642991
O           -4.69846597318323        2.57619871985137       -4.26611680119690
N           -2.95995746373312        2.92665199607444       -2.83016326017177
C           -1.72717731741335        2.30633991027033       -2.45862628878485
H           -1.64858692991262        2.17536145780519       -1.36936438597667
N           -0.55066544915593        2.98643266272455       -2.96519505134094
C            0.15663480577120        2.20633786189878       -3.82779553350102
O            1.23520588854296        2.49634203762943       -4.31662458780171
N           -0.54990998797384        1.07085794640696       -4.07865006398956
C           -3.42025738232469        4.20826872336574       -2.34783417580638
H           -2.98140963426307        4.40504045850632       -1.37244003581808
H           -4.50639479130482        4.17116411302600       -2.27033517582834
H           -3.14888875740279        5.00828106812935       -3.04101804071840
C           -3.46512102470650       -0.09420040913161       -4.77950103814437
H           -2.89749206282663       -0.95854866625332       -4.41814016068367
C           -4.95057390681578       -0.35103400359478       -4.51635910117058
H           -5.12576550840889       -0.48703205240141       -3.45127963092270
H           -5.25125086412906       -1.25140822255711       -5.04491964892019
H           -5.54744434953546        0.48629083588618       -4.86511300545103
C           -3.20429927069136        0.05803061095137       -6.26342603722577
C           -3.50620807824350        1.23486701497608       -6.93644974653127
H           -3.93962852286362        2.06169341903727       -6.39605606805290
C           -3.26482927222625        1.34504655379124       -8.29519805044542
H           -3.50313992510614        2.26660831282113       -8.80579722999616
C           -2.72519938716155        0.28077844089296       -8.99757873839332
H           -2.53620405298305        0.36974532605720      -10.05711031909598
C           -2.43419823666043       -0.90019891592081       -8.33613825877081
H           -2.01683820939889       -1.73713570236957       -8.87627785264764
C           -2.67307399122995       -1.01125768907316       -6.97711076200478
H           -2.44335551138071       -1.93217961846905       -6.45985815409979
C           -0.00020772646261        0.00034007245210       -4.86966618886428
H           -0.78235386615132       -0.43672002966112       -5.49495827874903
H            0.78189336377819        0.43750290563284       -5.49494199999868
C            1.74551085707761       -0.98159421072827       -3.26175082009476
H            1.70566163197926       -0.07803653185291       -2.63656075250922
N            2.97081511271006       -1.04872232561684       -4.01140159104420
C            3.64808036580984       -2.21195782663211       -3.76866466424995
O            4.69812049454540       -2.57560653434209       -4.26685917600253
N            2.95968336826027       -2.92634956888583       -2.83089137846129
C            1.72693006710593       -2.30610308072127       -2.45915755355164
H            1.64840855063299       -2.17532545474609       -1.36986569687101
N            0.55038604242278       -2.98609452381937       -2.96578422803426
C           -0.15695497102058       -2.20586337815406       -3.82822497913292
O           -1.23554161740443       -2.49579079387038       -4.31706457352331
N            0.54954852783228       -1.07031324297244       -4.07887243645573
C            3.42012161830610       -4.20796279167932       -2.34868085167264
H            2.98127945167101       -4.40487912701694       -1.37331382260210
H            4.50625346037059       -4.17074967235429       -2.27115910321413
H            3.14885268779738       -5.00793723501816       -3.04194659442657
C            3.46470269100536        0.09486491022095       -4.77970094241934
H            2.89708561800541        0.95913989830439       -4.41814760805473
C            4.95016696788314        0.35166641395479       -4.51659640345846
H            5.12541395022199        0.48747231074132       -3.45150094007898
H            5.25080088653044        1.25214214453001       -5.04500778112027
H            5.54702834679225       -0.48558762775255       -4.86553691783034
C            3.20379111721632       -0.05709750199375       -6.26363746763693
C            3.50560147130619       -1.23382813169047       -6.93688781752118
H            3.93902662780148       -2.06076888928542       -6.39667316627016
C            3.26414337129931       -1.34375060197296       -8.29564392283216
H            3.50239466274324       -2.26522626724392       -8.80642530508027
C            2.72452781664560       -0.27932977192678       -8.99780295484838
H            2.53547149031533       -0.36809565621063      -10.05734154054205
C            2.43360999917209        0.90154035876001       -8.33613058520567
H            2.01623885819246        1.73858576127535       -8.87609225278142
C            2.67256694548597        1.01234170985283       -6.97709823896270
H            2.44289239344156        1.93316787322607       -6.45965827449449
C            0.00649844552456       -4.20765682483082       -2.43352916908412
H            0.79260749084851       -4.96234041740286       -2.35665706133295
H           -0.77369904340018       -4.52301072970173       -3.13009740539281
C           -1.75050819973243       -3.32494489772820        0.76806365666985
H           -1.71780980174455       -2.33116273966762        1.23718067460857
N           -2.97233639608589       -4.01485750350121        1.08250332946695
C           -3.64272316802055       -4.39456035075335       -0.04759506464504
O           -4.68718183568870       -5.01714879616340       -0.11505113592963
N           -2.95511120671395       -3.93542206639442       -1.13395383169260
C           -1.72765531108375       -3.29426156514047       -0.78024710122267
H           -1.65501641868403       -2.28579579542037       -1.21333109386938
N           -0.54497032585620       -4.06535811213539       -1.11172401854431
C            0.16100277630981       -4.41677389715674       -0.00210748023554
O            1.24297536372030       -4.97869942208690       -0.00465477112816
N           -0.55117621943097       -4.06973468002422        1.10393084497608
C           -3.40500363351097       -4.17087435136017       -2.48641437025708
H           -2.97648251740978       -3.41875556331094       -3.14485089124690
H           -4.49237101803659       -4.10429942989508       -2.49766712562019
H           -3.11451500120398       -5.16737086357635       -2.82825569255253
C           -3.47081478523775       -4.10619479810164        2.45557737924876
H           -2.90950583087216       -3.35550943778368        3.02238084400299
C           -4.95844199458063       -3.75742197669531        2.53971650712063
H           -5.13670389989195       -2.76809071488182        2.12365943439150
H           -5.26321824667138       -3.76554184797538        3.58253630893513
H           -5.54959498118021       -4.48138041137929        1.98705883125330
C           -3.20351651943895       -5.46322297758254        3.07231417611723
C           -3.49455087771538       -6.63950890222309        2.39354987034607
H           -3.92498601706185       -6.59229674178484        1.40558071805698
C           -3.24515187294189       -7.86707763164751        2.98308717465291
H           -3.47465649872869       -8.77406103501130        2.44315432231354
C           -2.70893696718491       -7.93395475447801        4.25791071554062
H           -2.51337045292152       -8.89276266355226        4.71470769059449
C           -2.42886294514919       -6.76576056162018        4.94619657863499
H           -2.01449905475134       -6.80794514522764        5.94268563406808
C           -2.67569481345780       -5.53752575723356        4.35723616355407
H           -2.45425382363180       -4.62523034050980        4.89312157662094
C           -0.00647762909717       -4.21829515443947        2.42868752832896
H           -0.79187481057487       -4.53912621602652        3.11702405131033
H            0.77481728874797       -4.97951746214242        2.36712207548412
C            1.74634783055575       -2.34139811710208        2.48473080959634
H            1.71654878027035       -2.25341942754957        1.38921619974028
N            2.96466210934892       -2.96269382191718        2.92908705611941
C            3.63710271289311       -2.17406431536123        3.82164439044878
O            4.67980411338403       -2.42943444177004        4.39658989180623
N            2.95409789905283       -1.00047226691747        3.96296110965339
C            1.72796207047602       -0.98310309036614        3.22874595314581
H            1.65977187542816       -0.10527659761662        2.56954970399397
N            0.54356420982112       -1.07504153436200        4.06067160540348
C           -0.16679166395330       -2.20920518181137        3.81209201659646
O           -1.25054487538361       -2.48234391153928        4.29930994478709
N            0.54305227518131       -2.99819743750169        2.96074764404331
C            3.41036299231980        0.05571481187229        4.83679680546228
H            2.97762271589655        1.00053210118342        4.51617575911846
H            4.49724914636629        0.10082453687548        4.77573635155263
H            3.12903278377270       -0.14484570829192        5.87355501315074
C            3.45959080652991       -4.20088771424956        2.32571747657048
H            2.89979869931790       -4.31645308723518        1.39131011570308
C            4.94833339961307       -4.10602300069493        1.98478885875735
H            5.13222942251471       -3.25017219702795        1.33884272191053
H            5.24961103273920       -5.01344749927210        1.46876671801080
H            5.53824604252233       -3.99457788037000        2.88954784954041
C            3.18584277402683       -5.41013293590711        3.19512369252241
C            3.47837574646434       -5.40934617261231        4.55285583955390
H            3.91537891517066       -4.53211870835676        5.00349028973570
C            3.22242414518882       -6.53023717159510        5.32401597115020
H            3.45305877947493       -6.51506698847709        6.37918225775381
C            2.67737165528048       -7.66519814590568        4.74784269391529
H            2.47603839512375       -8.53741880419942        5.35194964001457
C            2.39677471821350       -7.67864632802645        3.39211873580477
H            1.97621306501566       -8.56099443285370        2.93273925676098
C            2.65009399437258       -6.55788327683291        2.62010283437809
H            2.42825263823032       -6.56705623894064        1.56219492698110
C            0.00015473809151       -0.00030933023973        4.84865460607956
H            0.78520639342782        0.44086100358663        5.46703734410230
H           -0.78484912513928       -0.44157030696003        5.46703198316889
C           -1.74613343097799        2.34119222896526        2.48519397741232
H           -1.71633116635765        2.25340888071432        1.38966186772713
N           -2.96446930416179        2.96237346561890        2.92965205022689
C           -3.63688273598023        2.17356945358110        3.82207510161562
O           -4.67959099209841        2.42880623030119        4.39706829961109
N           -2.95384241451522        0.99997568474632        3.96318905541568
C           -1.72771370485375        0.98275914841925        3.22895792236277
H           -1.65951731619746        0.10506107941266        2.56959276107735
N           -0.54330773703068        1.07455562940791        4.06088832712333
C            0.16700313618222        2.20879848294144        3.81255394994843
O            1.25074592297412        2.48187002156632        4.29983076359934
N           -0.54284793724459        2.99792091175587        2.96133566113574
C           -3.41005785971709       -0.05635397978434        4.83687906544948
H           -2.97716825893919       -1.00108286221426        4.51620226570263
H           -4.49693312791431       -0.10160242287332        4.77571908651707
H           -3.12884445033289        0.14415213383641        5.87367993377800
C           -3.45941313396767        4.20069156776696        2.32654733957306
H           -2.89963380083249        4.31645944413565        1.39215781609521
C           -4.94815849800395        4.10589119182240        1.98561488035277
H           -5.13205128924827        3.25019849980426        1.33945991910130
H           -5.24945540893739        5.01343985652121        1.46982253157982
H           -5.53805751807092        3.99421246669369        2.89035337901255
C           -3.18566241175628        5.40974872481078        3.19621391390005
C           -3.47819316837383        5.40865865964876        4.55394564355063
H           -3.91519081799193        4.53132864617201        5.00438623957525
C           -3.22220524953596        6.52936177818593        5.32536500151091
H           -3.45281889883332        6.51394415777622        6.38053428453031
C           -2.67711821960898        7.66443944833882        4.74945430218178
H           -2.47575591098272        8.53651408362004        5.35376017043740
C           -2.39653601065233        7.67819635885475        3.39373249870372
H           -1.97597248467097        8.56064435609018        2.93454689226985
C           -2.64989172664034        6.55761936072166        2.62145504613317
H           -2.42808208522817        6.56704473018088        1.56353949511480
C            0.00664521980308        4.21814963979804        2.42953845698087
H           -0.77466272495622        4.97937043580720        2.36814296555196
H            0.79204947481513        4.53884663719202        3.11792946826497
Cl          -0.00000552570356       -0.00007007440431       -0.00666784113386
