289

O           12.36212536274962       22.55451409046453        6.83338845876499
O            7.79706417826216       23.88546353697981        7.64700398598422
O            5.57134952414022       23.18340172828913       11.73156847758938
O            5.51524462907485       20.82081287969012       15.86701526592923
O            7.85432271160340       17.72513871690473       18.51765287522433
O           12.45080401332516       16.48508219553478       17.70088226364958
O           15.14903407540438       18.07951810280690       14.20949556320286
O           15.03623497453503       20.47668442370959       10.09560468101411
O           10.90602828889560       17.75216628892478        6.63206026014011
O           12.43191966114162       16.69236422199898        7.99010128924098
O           12.46708366726315       14.34616052447584       12.10884075545046
O           10.97041806868036       13.74391083272215       13.75613274848143
O            6.46880076664684       15.00502246663831       14.52513812234592
O            5.08249446132973       16.43781450259682       13.37404446289059
O            5.08919888743370       18.81170122923308        9.26811676412033
O            6.42150133903772       19.05412659827403        7.40810060273366
C           11.08696915309657       22.84809829100040        6.40054515854349
C           10.02019883354771       22.99201941454705        7.28241285727472
H           10.13825778347704       22.75546530180308        8.33016040593087
C            8.82093134292837       23.51218454672529        6.80455295823139
C            8.66954891886321       23.81636361299208        5.45654573357267
C            9.72351858023003       23.62897866611118        4.57216354323743
C            9.54658127578669       23.91934461842442        3.10278286099097
C           10.93507842462268       23.14937876028701        5.05199632093014
C            7.21482471613149       22.99227674183860        8.50374079119747
C            6.68746035848068       23.49794429089452        9.68450054349115
C            6.02262609616835       22.64428192933022       10.55655867021294
C            5.87974796480006       21.30084226245542       10.23805431155822
H            5.38549645126533       20.62412499433472       10.91435668659700
C            6.39689486940997       20.81345066724344        9.05080118839947
C            7.07185951694080       21.64846859236749        8.17887648382223
H            7.46804329613229       21.26890445938119        7.25072258822872
C            4.89810777812061       22.35440931776669       12.61114020950695
C            5.52075802744005       22.01012018229502       13.80323115677180
H            6.51128415284482       22.37404761369269       14.02543673445443
C            4.86913230698763       21.16504331031365       14.69105353836146
C            3.59781974320340       20.68514345968688       14.40387007198701
C            2.96934137294409       21.04601144973379       13.21692801769726
C            1.60906461853834       20.48751520557235       12.87961118226686
C            3.62740383191104       21.87610398619690       12.31647580247852
C            5.99517045186471       19.54622633633426       15.99200757732927
C            6.69217092334112       19.24969226033480       17.15730922017469
C            7.24895458628813       17.98829819775007       17.31882208482176
C            7.10609293655282       17.01702891657327       16.33530833855890
H            7.52748424340321       16.03431751641827       16.47658646251592
C            6.39619989374508       17.32039139057379       15.18716224554531
C            5.84744633018028       18.57840950767276       15.00753646011817
C            8.92108432751994       16.86490465299691       18.63000576178981
C           10.08601579309464       17.00973172666134       17.88136774561692
H           10.14335223982830       17.74122927877852       17.08795414087696
C           11.19835978044666       16.24503845964515       18.22080249130191
C           11.12479770567532       15.30244169628782       19.24039195976743
C            9.94873393762838       15.13392557128937       19.95840269736988
C            9.85895206491036       14.08986494137937       21.04297020970846
C            8.85011028357076       15.92506768092399       19.65274202993540
C           12.70911060027653       16.47944576692754       16.35920142819535
C           13.76410905556091       17.27034761395368       15.92369929003389
C           14.13165115684985       17.24523028930613       14.58425068103785
C           13.45369240916087       16.42410914481864       13.69351788738738
H           13.72275197113677       16.40062403733312       12.65054596494557
C           12.41051697089505       15.63245912934103       14.14202536869962
C           12.02380682934619       15.65980761007838       15.47075069610828
H           11.21684276574134       15.03463966702168       15.81887728757690
C           15.48575318633086       18.14580361441068       12.86794903120486
C           15.10337466125773       19.26805637900495       12.14606374438971
H           14.53958699255674       20.05501769932906       12.62123016668270
C           15.42933624801423       19.35337750832656       10.79952479364627
C           16.14696394195176       18.33613022078928       10.18296422389772
C           16.54582426737808       17.22259265239117       10.91348270200495
C           17.29447736231233       16.10128931025377       10.23677681427948
C           16.20463170940678       17.12582699409484       12.25823126466397
C           14.03879092338316       20.34271373833034        9.16707890929491
C           13.67501020660755       21.48614135617678        8.46622078509486
C           12.63236929003299       21.42334620235849        7.55178093241053
C           11.95943142030784       20.22879585674155        7.32284531770869
H           11.16417084282512       20.18394779034899        6.59620267899383
C           12.34174069014313       19.09541715475995        8.01780522920400
C           13.36990530301561       19.14753351305664        8.94267742804206
H           13.63138956330842       18.25838190821606        9.49213591479551
C           11.57383677984673       17.80136136159300        7.86579879742577
H           10.83296489700670       17.77699746187117        8.68695682980363
C           11.89953203863608       15.64119541587347        8.73550757192181
C           12.40356012711184       15.45413050554672       10.01146604853326
H           13.17062817630451       16.11691323093799       10.38331993981498
C           11.91817677498089       14.44745204989873       10.82864039698531
C           10.90836099914969       13.59977963488823       10.37117836957486
C           10.40922905243136       13.81841599516636        9.09536920011143
H            9.60964910900210       13.19231984432981        8.74566061902143
C           10.88739588985569       14.81037805904674        8.25242200890264
C           11.62880839953550       14.82136719994249       13.13294565021992
H           10.87665286688283       15.50309044140297       12.69584859481858
C            9.63996442502485       13.64848605812005       13.35379249753411
C            8.68396114576692       14.24074989356515       14.15662719179936
H            8.97684354701816       14.72239284355916       15.07722289391219
C            7.36648993252631       14.28409111588977       13.74263677721834
C            6.97939053611256       13.72412010148664       12.52551526962379
C            7.95858089966576       13.12972304098395       11.74345491513944
H            7.68395896302637       12.73267907477172       10.78310087068429
C            9.28953286601620       13.07606562442988       12.13265967209025
C            6.30577369045375       16.32288489227302       14.05389757303936
C            5.19585848237892       16.37001900226574       11.98268410148054
C            5.08931833343981       17.55806698351704       11.28034916902512
H            4.94228948733671       18.48343019042978       11.81564166960984
C            5.19933974361096       17.57455712164907        9.90041078891561
C            5.42630398949055       16.38919186211397        9.19870066374231
C            5.56269948311757       15.21563615653360        9.92722206406898
H            5.79179265650345       14.30459028157037        9.40411450641390
C            5.43065839972381       15.17022924695265       11.30832870957483
C            6.30260332336479       19.32808321820684        8.78160496468318
H            7.14281720486355       18.85566508844915        9.32508638585371
C            7.31303198579485       18.01435343400481        7.15682936526523
C            8.62610286163530       18.34988473801932        6.89045311635314
H            8.92215256680325       19.38668433283194        6.85038522362286
C            9.57719512553942       17.35523455516996        6.76987269125761
C            9.22958665691669       16.01040888996437        6.89267335131711
C            7.89716931973723       15.69963903692926        7.13574153714387
H            7.61917561622105       14.66884149096092        7.26985892066691
C            6.92443423338490       16.68046646242988        7.28165886469362
C           10.34773651612544       14.98879875430332        6.84620018103076
H           11.15893208621547       15.44430731427745        6.26463051059733
C           10.38273712487396       12.49180610103903       11.26249482997785
H           11.20379939728440       12.21143087136858       11.93437342654569
C            5.53539532604376       13.87764775910058       12.09208526738693
H            4.96741037964659       14.02216910553155       13.01813036634520
C            5.49101864732555       16.40587189768647        7.68404290010813
H            4.91253089672215       17.28300631450135        7.36892933270464
C            9.96449087895996       13.65875118807620        6.19184603863572
H           10.81067623909712       12.98280591059738        6.31369968650229
H            9.09751379436801       13.23156794279035        6.68703039432258
C            9.65740706956100       13.84868527586016        4.70484892594830
H           10.50296659272682       14.35155834703766        4.23711927750927
H            8.78868992300076       14.49855727687350        4.61879756763282
C            9.41994969425200       12.47732469141202        4.06973833374024
N            8.90536546756076       12.49223768665090        2.67388986174252
C            4.85825033603860       15.15963886600968        7.05739099738344
H            5.51083283218341       14.29875971288723        7.16403339193835
H            3.93217364690662       14.96703654482330        7.59777547542587
C            4.53845094258382       15.39308431972745        5.57849961215615
H            5.47150417209420       15.52910682362180        5.03512973625266
H            3.96567428534855       16.31550137388546        5.50036627761404
C            3.73396796458143       14.20489071935176        5.04725804005034
N            3.14403891834986       14.36895382393156        3.69099474425401
C            9.91508631129096       11.24513641853089       10.50050408773872
H            9.11640523873377       11.51915467540703        9.81830239983880
H            9.52053951474711       10.56293086546487       11.25329077522862
C           11.06869395428442       10.60796765194080        9.71926231697479
H           11.69233780487820       10.01686732874609       10.38777895560374
H           11.70277295483795       11.41480833562734        9.34604776726411
C           10.66328168893866        9.80693886346942        8.47962098526721
N            9.93025758078918        8.51947801377011        8.67470020570122
C            4.99415307653061       12.63946487774236       11.36217666181073
H            4.96037023695333       11.83110871326909       12.09306354684260
H            5.68036856074657       12.34085502748192       10.57568062295215
C            3.61312472598473       12.83393137902926       10.72838839933817
H            3.70417439911204       13.55863455791249        9.92380616021047
H            3.31405482078622       11.86952630615153       10.32154464907840
C            2.59001434709901       13.32879889660419       11.74731565327036
N            1.19383598776956       13.41730141494896       11.23461070490103
H           14.29166781339724       17.90261506675109       16.61831290696943
H           14.19347509419195       22.41465104157127        8.63863284029400
H            6.80223218594023       24.54109438030755        9.92840085556053
H           16.36402955128725       18.42349214973982        9.12973037906393
H           16.46779701022055       16.25900685454511       12.84425592977697
H           12.00896323014994       14.72445048599323       19.45428903508628
H            7.92335003621671       15.84414496327378       20.19700808685663
H            3.12974041710662       20.01548836039257       15.10845464083010
H            3.18321316756018       22.14455245796231       11.37059875586366
H            7.71849082858616       24.20611089971601        5.13203382572953
H           11.78601909761132       23.00685377727319        4.40605306379741
N           18.77997259459588       16.23983701677794       10.26923681072666
N           10.25279950746609       14.56946198608357       22.40043092211463
N            0.46221854485326       21.33037056908837       13.32814409888616
N            9.89639670403499       25.31301657661202        2.69928787887442
H            7.13033825153580       16.56421104605740       13.35792700291047
H            6.80719896839254       19.99657628005220       17.92522355137492
H            5.32352709268615       18.79845587322585       14.09278893756152
C           19.36188591032717       15.08064713538859        9.56986319454835
C           19.26659855250419       16.25940290459200       11.65725781246339
H           18.85970838742292       17.11601013484962       12.18905379051048
H           20.35164676443121       16.32946333897650       11.66789154941505
H           18.97374931046210       15.34744472605825       12.17161723992343
H           19.02524361825135       15.05518816693626        8.53659373872589
H           19.07057285009893       14.15658765180282       10.06278556006480
H           20.44689295724629       15.14946451506078        9.57868938721103
C           19.19968609880847       17.47362872729198        9.58682860170307
H           18.85350632314238       17.46939100073004        8.55634203116618
H           20.28467631005722       17.54539231513435        9.58762202206681
H           18.79563779969186       18.34447798041831       10.09709277080800
H           16.98726724699132       16.05353691467976        9.19098830738485
H           17.03694038396057       15.16033546865493       10.72520213795711
C            9.67140782379353       25.43888934411884        1.24877268565261
C            9.04537814129619       26.28315466905131        3.40506110830319
H            7.99772930630150       26.09318498428457        3.18582559238837
H            9.28804218964912       27.29253987038352        3.08151598088858
H            9.20586658814703       26.21494256439534        4.47806248196062
H           10.29848819437993       24.73635095614945        0.70553609191798
H            9.91823929111990       26.44564152495410        0.92045576540679
H            8.62923441963923       25.24411931831607        1.00850140002103
H           10.17866065972831       23.23994466651751        2.52954754654745
H            8.50409149150748       23.74846730336711        2.83146781012836
C           11.30904899103609       25.59773495602047        2.99384921375574
H           11.95139134720032       24.89369696831975        2.47078156191898
H           11.49370317020970       25.52626802796653        4.06274833410802
H           11.56035054903361       26.60338039787733        2.66524658038335
C           -0.78405706564616       20.65140749702024       12.93093850038820
C            0.48001493757634       21.48956729731799       14.79035641592770
H            1.38684679451523       22.00014621692026       15.10533610550014
H            0.43035280568222       20.51836085890472       15.27629344088054
H           -0.37545967409548       22.08006756430337       15.10963362792942
H           -0.82001268441264       20.53176515051794       11.85124692034763
H           -1.64256145471906       21.24217716961788       13.24092212128738
H           -0.84902548790047       19.67572952253879       13.40538619642007
H            1.50605043368848       19.51005544868328       13.35238074866291
H            1.53518139261895       20.37459906488791       11.79710663742096
C            0.51356272809866       22.65500946205769       12.69079818151211
H            0.49255227514362       22.55317443474296       11.60870518009449
H            1.41853329220792       23.18182519610829       12.98343154888726
H           -0.34400325782141       23.24814081315685       12.99948306680767
C            9.38138665665409       15.67374447889141       22.83045783057613
C           10.10804538058860       13.44579569483360       23.34214879949421
H            8.34421098133831       15.34857519727380       22.84745215012574
H            9.48153087386657       16.51800634755091       22.15308225973079
H            9.65938959673636       15.99518869349852       23.83129731266252
H           10.74991444892013       12.61909430899596       23.04790726846331
H            9.07719336938958       13.10120438950646       23.36582572482768
H           10.38972582386765       13.76198194491583       24.34359944807940
H           10.50993128267595       13.25377989967627       20.78401943904408
H            8.83088026634468       13.73054644648386       21.10363934125097
C           11.65202570426495       15.02300176860603       22.40378593255235
H           11.77708168637272       15.86472042346182       21.72739124627617
H           12.30979231990380       14.21429545641080       22.09512826830995
H           11.93640842429539       15.33628476901302       23.40546620271929
H           10.36367646350442       11.93071154595545        4.07291051205538
H            8.69751451593116       11.92683359567026        4.67319279182922
C            9.74898077226358       13.32771339376936        1.80559480493151
C            7.52067522445833       12.99128882278054        2.64778534209209
H           10.78845807175630       13.01489256228765        1.87261086022655
H            9.67582900323541       14.37314542624654        2.09133511482577
H            9.43127534922196       13.22997220093546        0.76985125350196
H            6.89984891522378       12.34388429881038        3.26156813493484
H            7.15055595758371       12.98154201068395        1.62504368851130
H            7.48748533333345       14.01067179835709        3.02115217460103
C            8.91666021064091       11.10707185177805        2.16758858112277
H            9.93333268298461       10.72333304404575        2.12834771645814
H            8.50611109327415       11.07051606767441        1.16115686326272
H            8.32107671895932       10.46355712381028        2.80991715799111
C            0.62801444458331       12.07572458352341       11.01625931013249
C            1.14739196551821       14.17741836877637        9.97356762235688
C            9.98155967172531        7.78484681048062        7.39549110060615
C            8.51423998239857        8.74647174362961        9.01110917017728
H           11.58430074025702        9.57024202313839        7.94591653827163
H           10.04606971174229       10.43887157481484        7.84091694990639
H           11.00700397298215        7.52556953936732        7.14315873781429
H            9.56245450247929        8.39271215542269        6.59889352079633
H            9.41130497863055        6.86196659694320        7.47036915238836
H            8.42491918157592        9.23833829076238        9.97276214290892
H            7.99610165333220        7.79186253466009        9.06916108067198
H            8.04485382236553        9.35107104736742        8.24099531316077
C           10.55749601068896        7.69933278094204        9.72055942540104
H           11.61928808362392        7.57427413966678        9.51997943267714
H           10.09676604063137        6.71425334450356        9.74795001475613
H           10.43350827206369        8.16036982060854       10.69632499234774
H            0.62378033277172       11.51079688558337       11.94546625016992
H            1.20722374679659       11.53121534920870       10.27699912883284
H           -0.39704152842892       12.15799331578763       10.66246107044067
H            1.69098140837116       15.11271194046241       10.08561108890277
H            0.11341856237558       14.39722908127773        9.71844641018646
H            1.58395695755013       13.58938511330545        9.17284671345564
C            0.38194613998880       14.11828144551863       12.24396336899413
H            0.43333393575454       13.60072635416769       13.19943222793133
H           -0.65903061956883       14.15502440871341       11.93078484743388
H            0.74795693451812       15.13336254738923       12.37741045631837
H            2.88074833754104       14.32712381284060       12.07860329276196
H            2.58861763086025       12.66954862205648       12.61698215543339
C            2.42628151194039       13.12389000327935        3.35922242507096
C            4.19617781110769       14.59323051075586        2.68824761356652
H            4.73215361700067       15.51293966121271        2.90296872399096
H            3.75378606246342       14.68023036318642        1.69860603438416
H            4.88340180256691       13.75303473970307        2.68834100319797
H            1.62036590270523       12.94981779437724        4.06793845831374
H            3.10528058661327       12.27555298421907        3.38003477798316
H            1.99156219162916       13.19236484660884        2.36496820335637
C            2.18737384493988       15.48666910514643        3.66039686574725
H            1.44062260027043       15.36813715530682        4.44164173940411
H            1.67685943419263       15.51443301038415        2.70046466366581
H            2.69785202420262       16.43591897893661        3.79465304846649
H            4.37250182230605       13.32177310616697        5.02464695698894
H            2.90821653575334       14.01361453604121        5.73348058094077
I            9.24733775082682       17.58498898240609       11.36858339467534
