391

O            3.37608994780706        4.23296263783179       12.06620587801161
O            8.89273400222523        6.26951620334210       10.31556942410273
O            4.89423921265079        3.90379193360681        6.72611756148286
O           -0.93972875186172        2.98588894654329        7.78225544938358
O            1.26889813361693        7.24478493948332        4.12686522339548
O            7.09652257308574        8.47213038230174        3.44242731017830
N            4.76999222077238        6.05574034055164       11.89711397144037
N            4.67614847721085        4.61293783877740       10.21594245517592
N            6.85520946299127        7.01187794096718       11.10580786837120
N            6.90823681086757        5.36184051695833        9.61717228669134
N            3.27178265843430        4.08690897631111        8.33546008511299
N            2.82372564692123        4.80278971673387        6.28632284816478
N            0.92491438436817        3.84731713412871        8.82141913942470
N            0.46643036045705        4.47423192392503        6.74418628226672
N            3.34732390841020        6.71536363219424        4.93545709616564
N            2.83708665720801        8.84877817653667        4.61899440003874
N            5.71177198598922        7.22397293263596        4.79120446480606
N            5.19715773594436        9.34328031136035        4.39410008940957
C            4.18322075504706        4.90550214842058       11.45359849253035
C            7.68142261939904        6.21670581525063       10.34683008641806
C            5.47348104411778        6.74988566604423       10.82789085864405
H            4.93249796288062        7.66514128341066       10.54608246869206
C            5.50885104497952        5.67666427529064        9.71023044166147
H            5.12134055378611        6.03368032562692        8.74352981335924
C            3.78007242411746        4.24164796732268        7.07746497470416
C            0.04991383821042        3.68788802411083        7.77957579979368
C            1.99184808296559        4.74700238217615        8.49444330783725
H            2.07020698748967        5.57243927810282        9.21758393390414
C            1.66219921503854        5.20614227702502        7.05132444510937
H            1.50129113372092        6.28953502537879        6.95180963651240
C            2.37311219745677        7.56887081452278        4.52771079876671
C            6.09985673765454        8.35189446544093        4.12698338771018
C            4.48419439800055        7.41119129878837        5.50430424695226
H            4.59301535727156        7.15145405845905        6.56831886490471
C            4.13703687997028        8.90285085866934        5.25454577044539
H            4.08618977955433        9.51205393248608        6.16882605033102
C            7.33359615542847        8.20734236861300       11.77454637077053
H            7.67431154521777        8.94704201494780       11.03977346306922
C            8.49766356961049        7.85982317341140       12.72011013819599
H            6.51067207294925        8.63812849950093       12.34584791328710
C            3.12629555813044        5.29436540495662        4.96558163413216
H            4.01832128863882        4.77289398120190        4.60989737825185
H            2.28452065562999        5.11030633200003        4.29450340335088
C            4.08861261134687        3.57817455940005        9.39921385006696
H            3.49391424128188        2.96057896940247       10.07646610413926
H            4.87330238691741        2.98999452715617        8.91635486867923
C            4.46369756635300        6.58210940755940       13.19776578582122
H            5.35190310888304        7.04698110836334       13.63300411211022
H            4.14788197370124        5.72661182080070       13.80093309784656
C            7.47704811005541        4.22755043319135        8.92347103818269
H            6.86746343008349        4.00696851452025        8.04538023683949
C            7.60342576308562        2.97563356960148        9.81465206220983
H            8.48154798597604        4.52964565622705        8.61790109159281
C            0.63980947400433        3.36266908633696       10.15506848340738
H           -0.36915353981408        3.67605658461595       10.44570038940693
H            1.36617975922084        3.80490411193550       10.83833793046712
C            0.68684183045493        1.82312202104898       10.22754894649724
C           -0.20135525023205        4.48322503366507        5.46452693484428
C            0.16692506347923        3.24886538546803        4.63127241945952
H            0.07403115851655        5.38995993408651        4.92362585619118
H           -1.27939526771481        4.48616453260697        5.63995563504611
C            6.53843132687832        6.03499253527724        4.85517560084657
C            6.72097411106430        5.38302936858053        3.48498701495618
H            6.07668122455940        5.33241567175355        5.54861457470390
H            7.53062702692537        6.31450530617556        5.22337425327305
C            5.31267087200756       10.66331809075242        3.81902073382456
H            6.35180400377225       10.99082826270090        3.90719082809686
H            4.67536769781400       11.35264110627388        4.37444397955256
C            4.92933041892725       10.65629486966943        2.33397127369308
O            3.00695771533517       12.22627880923279        5.80696995310147
O           -2.84052752510121       10.72205830984113        6.72513347382247
O            1.01356768483869       12.33198708590587       10.96685834682991
O            6.81431106418384       13.76364347588889       10.25477933847335
O            4.84943862679633        9.33014971372499       13.69882442901747
O           -0.92704893788218        7.72700474563588       14.29801934949945
N            1.47562198919229       10.51979653284380        5.69602407699027
N            1.44795499269416       11.86671066291424        7.45381973222302
N           -0.80909642347880        9.83959702148422        6.11920931926900
N           -0.88440510119199       11.28437674138635        7.80130470324833
N            2.72695616362095       12.34478581417526        9.44473779896029
N            3.13081679297819       11.60890447611734       11.49555602987336
N            5.07753015027813       12.79659002268670        9.09996235418505
N            5.47634795320880       12.14163223630528       11.17962030566158
N            2.74185363978828        9.67690520024080       12.86624544102657
N            3.43604794713207        7.59443815259313       13.18945248337765
N            0.42816272146370        9.02182530164768       12.98216942451498
N            1.11507168725169        6.96998510746332       13.55120975682653
C            2.07751518828589       11.59428457648882        6.27688031620047
C           -1.63976326606374       10.63855876502615        6.86318501498716
C            0.54023305602535        9.86923812644397        6.59531554381585
H            0.90402989886800        8.86308574294729        6.85347940498834
C            0.48264622315616       10.84504447209708        7.79917987796470
H            0.75471499616512       10.38476770843515        8.76105265900111
C            2.17111720494523       12.10720492251939       10.66616059030807
C            5.88221773871208       12.98928279959962       10.18865046444317
C            4.06922009287131       11.80704469339885        9.33877595979169
H            4.09800579370222       11.00647048235681        8.58483638760096
C            4.36260809780587       11.32780449831001       10.78553247219885
H            4.60532670349313       10.25722146184945       10.86229162944291
C            3.77858643556438        8.91519398143440       13.28898685109695
C            0.10450847478628        7.89586976898025       13.67760335010061
C            1.67414666077970        8.88186795906775       12.29718825423652
H            1.57491801783660        9.09478697212713       11.22166726402883
C            2.11575977307305        7.42706552238106       12.61862700477111
H            2.16550643212278        6.76899611276137       11.73830143015523
C           -1.33399905079433        8.88953034258667        5.16125357634185
H           -2.15413672031297        8.32913269154267        5.62128946454375
C           -1.88474148353284        9.61305976358146        3.91742157448299
H           -0.53933957262623        8.19627451828671        4.88594859314209
C            2.81266019724535       11.11260357125761       12.81129941115104
H            1.84438890155657       11.53725626188417       13.09618610749417
H            3.58755033619180       11.40878074561106       13.52131406067874
C            1.94189884158770       12.87033656355402        8.36049294221656
H            2.54621201275626       13.55374309417476        7.76075440638761
H            1.10103152632297       13.39177331550593        8.82309426447669
C            1.95511149396978        9.97551117131589        4.45382693975010
H            1.11217716790581        9.61924472183368        3.85689637461862
H            2.47909376084870       10.78890934873596        3.94627078914666
C           -1.45175487897508       12.20115544858074        8.76487055374703
H           -0.82683364649677       12.19229923225756        9.65888118529526
C           -1.58131949034961       13.62827664370412        8.21979323405678
H           -2.45921077594331       11.84880095650147        9.00027054127518
C            5.34168187053210       13.43658516708734        7.82871446826892
H            6.38903266731262       13.27341876068440        7.55696329781288
H            4.70537865776125       12.97861175330056        7.07095651929978
C            5.09572365614809       14.95671508614678        7.91347063504556
C            6.12792568712562       12.10449292290422       12.47020889659155
C            5.78295250444093       13.36596149526469       13.28675527600165
H            5.81690913684726       11.19699588551186       12.98673118797106
H            7.21007477539983       12.07067770994711       12.31589526423509
C           -0.56667046127092       10.03486630526137       12.68490781866656
C           -0.96587111033545       10.86900397238305       13.90546006034533
H           -0.16287685348850       10.69577236541284       11.91717632882007
H           -1.46730797981079        9.53640774021510       12.31120290307985
C            0.78516443231654        5.56927758005710       13.75732863268190
H           -0.26843984155836        5.55617807893079       14.04891336639279
H            0.91530984534260        5.03258394884639       12.81254711248291
C            1.59469624319523        4.82025124180149       14.82205581658804
H            7.39054439910999        4.51934140007630        3.59514684063247
H            7.18101124414792        6.10752481532200        2.80029680039051
O            5.46966740882355        4.96299731738319        2.97069024765950
C            5.59295700740239        4.37051167715345        1.69544813799737
H            6.14781766812208        3.42457563457288        1.76450149420307
H            6.13802712910857        5.03964031735828        1.01543761956238
C            4.20721743524542        4.10234513219992        1.11310420394116
H            3.64621818524809        3.41532017177706        1.76199182939911
O            4.40766208469411        3.53707996812650       -0.16309644879935
H            3.64520219935131        5.04396370272701        1.04188095353851
C            3.23075547855648        3.38446263643437       -0.93196420599247
H            2.52112320479907        2.69884959261081       -0.44773782557063
C            3.67061486885554        2.83211616850779       -2.28495426120476
H            2.73319069471890        4.35521284127854       -1.06962977028105
H            4.13668842533576        1.84743882399045       -2.13928089111672
H            4.42404646861550        3.50844557106129       -2.71373035392772
O            2.55634184071164        2.73077305780007       -3.14183115843699
C            2.90843333438204        2.28503234230021       -4.43802556687789
H            3.36484254349084        1.29035386348961       -4.39664791487770
H            3.60965847783234        2.98036796716091       -4.91060406944902
H            1.98389407980199        2.24948949018483       -5.00940514599252
H            5.66785036837407       10.06311845773458        1.77553831772859
O            4.91320707284858       11.98724492316830        1.86974559867468
H            3.94132439042774       10.19038769949346        2.19660429610899
C            4.61455704786479       12.08533148220176        0.49245271478988
H            5.32106644128687       11.48674012869729       -0.09884507260583
C            4.71107178407884       13.55229526390964        0.08472497054033
H            3.59846829840351       11.71774030946226        0.28943082755138
H            5.74818840644508       13.89931058010863        0.19234525956995
H            4.07591822333558       14.15503855800011        0.74879297438550
O            4.28164417718506       13.66838486729805       -1.25312433392860
C            4.35566607479713       14.99581516882214       -1.74268012191008
H            5.40230625549412       15.32551841210825       -1.79874158979386
H            3.81508726174467       15.68572363451546       -1.08200753052987
C            3.72464062163932       15.01915624799120       -3.13138352960430
H            4.33369817944632       14.42439186395483       -3.82735094004336
O            3.63941238180177       16.35746089861667       -3.56531570048510
H            2.72449084198433       14.56482602608818       -3.07798058207652
C            3.12109182974617       16.47857567570204       -4.87393563381028
H            3.75958153473857       15.96049165017787       -5.59797107776606
H            3.10183831346994       17.54316855272367       -5.09429797127607
H            2.10736560311103       16.06700559590488       -4.93427999046228
O            5.22641464362236       15.60467295772241        6.67076481169857
H            5.86042917309415       15.39442420897662        8.55967237891282
H            4.10665512954970       15.15149907051087        8.35064305870521
C            4.08794001753076       15.52173753504788        5.83210020134161
H            3.22762220499056       16.01088152875556        6.31187439602320
H            3.81975856901614       14.48344222260329        5.60529034591477
C            4.42248561701813       16.24932089030525        4.53405657824399
H            4.74488049476787       17.27504508047962        4.76245542613749
O            3.27042091196538       16.26159814215608        3.71798448663990
H            5.24832962707024       15.73011297493525        4.02957173655625
C            3.51209500087346       16.82834001966970        2.44744951066673
H            3.83507000546046       17.87397186746869        2.54474821552033
C            2.22608559887874       16.75153716470838        1.62990207695405
H            4.30400072772401       16.27328966171146        1.92423283944276
H            1.47537515931609       17.43916489755910        2.04295764316352
H            1.82378193500724       15.72907322611131        1.68990133813449
O            2.53424342427639       17.09087724538844        0.29699634609095
C            1.39908812700623       17.15212937913556       -0.54369260194338
H            0.71084762636535       17.93735222119544       -0.21330393812888
H            0.86954970475353       16.19314059200472       -0.55573288702513
H            1.77805276011732       17.37917713876413       -1.53776385573625
H            6.24584192885442       14.22760651243074       12.79911819841007
O            6.29804438987525       13.35294033734514       14.59520077310735
H            4.69233329687014       13.50690894717059       13.30180989409807
C            5.57368104352892       12.56948190058753       15.52286094896224
H            4.50785250379604       12.84018015690576       15.50028161676041
C            6.15049930345701       12.86650535160297       16.90349778849758
H            5.66462768924131       11.49646798618319       15.31061178375574
H            6.09975418380645       13.94797545370974       17.09087400287170
H            7.19919445832242       12.54746059855895       16.92969151022438
O            5.40119371986891       12.16321312305218       17.87600469829126
C            5.89149886029632       12.37600912414969       19.18688119864452
H            5.73019618485595       13.42032409544696       19.49028863946705
H            6.96763026125594       12.16726066003118       19.22652547010552
C            5.14767517518728       11.45292748102464       20.14688420165621
H            4.06304442017589       11.57328425203421       20.00454002796086
O            5.51543792814845       11.80251347923544       21.46270184355326
H            5.41215213393692       10.40698330512048       19.94094801500952
C            4.93808511659355       10.95745303275537       22.43605898534209
H            3.84410171897913       11.00334792907729       22.39522771878897
H            5.28843630093340       11.32209554647033       23.39849449022947
H            5.25839024214722        9.92010326978690       22.29004009356879
H            9.36963473268590        7.58810868850008       12.12165111464778
H            8.20118773551013        6.99944627349144       13.33539750546597
O            8.90523610476889        8.93687979162891       13.52530669390032
C            8.15711342706810        9.11719764721550       14.71310342615893
H            8.01211233445849        8.14086981518835       15.19622447681448
H            7.17284658973483        9.55783243474326       14.50944243952770
C            8.97634826296166       10.04074198565379       15.62201657375275
H            9.92018193926125        9.53649560092850       15.87123721257795
O            8.31384413575235       10.45379678298053       16.79326394434854
H            9.19807549839843       10.95984739094939       15.07603751081235
C            8.00838589438186        9.44070173068622       17.73240099746347
H            8.71271830014243        8.60669579513831       17.64817170915603
C            6.56237407082314        8.94387983589162       17.61283880518472
H            8.11735339389396        9.89244685820576       18.72333460151938
H            6.43613792282885        8.26504162903447       16.75785822777837
H            5.89693526290841        9.80568875527831       17.45846040800501
O            6.23137880410106        8.27326221363425       18.81191859503227
C            4.96843625279183        7.64334913869563       18.75731844330267
H            4.97673855154023        6.83062117224899       18.02186555738482
H            4.18107834958940        8.35266440483122       18.48068573669698
H            4.78468749015156        7.24131084614520       19.75091054914823
H            8.04879037485755        2.18173326022495        9.20893646153045
H            6.62488703735008        2.64982130507023       10.18000331140873
O            8.48320959507293        3.16360851102341       10.91055201636179
C            7.86832046942939        3.51850332797474       12.13107778290724
H            7.39174966651625        2.63715079937921       12.58602112197741
H            7.09987333035031        4.28834686559917       11.99785382889090
C            8.94587509053754        4.06830726110277       13.06178132001979
H            9.65897411706812        3.27319642497646       13.31477676740250
O            8.31334524960307        4.55654686891080       14.22897131856062
H            9.48735765088172        4.86965457335166       12.54037755803137
C            9.22688124754779        4.95650339410819       15.23369391259814
H            9.95784718925159        4.16029900455319       15.42632903489149
C            8.44059690773667        5.23724773235627       16.51265277133778
H            9.77660132321068        5.85705269056250       14.92594168630592
H            7.94665695271698        4.31265087632494       16.84330050108653
H            7.65743070201120        5.98488902749304       16.31242229364823
O            9.33665350138921        5.70242283264504       17.49294782680636
C            8.76545020938079        5.77303898955061       18.78793732854739
H            8.40938992095386        4.78790889174111       19.10695942661242
H            7.93576335372131        6.48664671269056       18.82152412714021
H            9.56294038468335        6.10867416034918       19.44597584649257
O           -0.27014178003304        3.46423849567289        3.30776586286029
H           -0.31674338958546        2.35795840794170        5.05716783845079
H            1.25566730047089        3.09189080009310        4.65313579789098
C            0.13793014771303        2.44648980093336        2.41913107195068
H           -0.14658985196816        1.45822442203096        2.80528492898423
H            1.22984184560698        2.46419391528022        2.28804114939771
C           -0.53822040268405        2.69104042872351        1.07292594004245
H           -1.61824261608657        2.52402944947375        1.17320350373384
O            0.01672655070442        1.80261259578454        0.12667189947568
H           -0.37530813507154        3.73507927960961        0.77198727338948
C           -0.78553006192179        1.64814873598251       -1.03122139205973
H           -1.74682884610080        1.18449774387263       -0.76726376264006
C           -0.03774338545074        0.74091317539232       -2.00182264139991
H           -0.98957266680036        2.61667726182110       -1.50251376117645
H            0.26266448449524       -0.17659402852676       -1.47359882439518
H            0.86604462775619        1.25199653836195       -2.36011002502600
O           -0.89618130179822        0.43248925144061       -3.07795560487511
C           -0.30125198708167       -0.43761294570054       -4.01748691861536
H           -0.05005571746482       -1.39959907523921       -3.55611744521756
H            0.60836846618119        0.00433718884313       -4.43740190514768
H           -1.03885621063908       -0.58634055245243       -4.80243964417176
H            0.01411396755784        1.42629416256546        9.46373965737432
O            0.19437911099120        1.33042677183286       11.45002374825950
H            1.70613894999823        1.46036826073184       10.04138576531253
C            1.08235045853124        1.43805492407283       12.55047317629013
H            1.94334058413103        0.77137642472886       12.40854501173773
C            0.29698232146192        1.04997160468277       13.80203021257564
H            1.45775816492861        2.45987505031907       12.67505197090911
H            0.17483888405881       -0.03970173920705       13.85670212084224
H           -0.70161552499377        1.50495452358348       13.73798654821127
O            0.98539766717078        1.52871413270459       14.93858619599011
C            0.32671009905732        1.21779533374184       16.15079347694386
H            0.30060297943557        0.13026544881444       16.30655976373058
H           -0.70703912214023        1.58864442901086       16.13391332372124
C            1.08655347487819        1.87803938835219       17.29710506592911
H            2.13880442063170        1.55901918395994       17.26662532381894
O            0.48232821031984        1.48029727753825       18.50895616941152
H            1.05344686897602        2.97105896329861       17.18545317337362
C            1.06332184024541        2.09468611424592       19.64002059908022
H            2.12358909333333        1.83226383389752       19.72666145062697
H            0.51733333603566        1.71835759279614       20.50180457530970
H            0.96888690551654        3.18444311551322       19.58328213627624
H            2.65506711653806        4.80632005284134       14.55204513764365
H            1.24162103295169        3.78474526855453       14.83045888365016
O            1.42682431212816        5.27857756304857       16.14528250452284
C            2.15572335166906        6.43913992788081       16.49852409857176
H            2.73748424780438        6.81913562229859       15.65480296411188
H            2.84449585222436        6.17146796318720       17.30759515858506
C            1.23368507507336        7.56771622316416       16.96524329606374
H            0.33903376775561        7.60309623896616       16.32952904585204
O            1.96357357426763        8.77759167191144       16.86615061296731
H            0.91074778257443        7.40251910078577       18.00146574890590
C            1.25172490283222        9.88522854733173       17.37327930332413
H            0.26762748743492        9.95914361301021       16.89003060099916
C            2.06086095093616       11.15183203254995       17.11189023722513
H            1.09642211322720        9.77608027341508       18.45684662128271
H            1.99140140628511       11.42519198357936       16.04935642507694
H            3.11812748842559       10.97241687991844       17.35550542222850
O            1.53766767626219       12.17759656638112       17.92771214190659
C            2.22365673454095       13.40637281282659       17.77452265683669
H            2.06244457188001       13.81849106145772       16.77261496554711
H            3.29499593715527       13.26842924903520       17.94125344390177
H            1.80769853489226       14.07985462129754       18.52003965062653
O            0.06257872622094       11.78481766174216       14.24601142993999
H           -1.17173535436435       10.20024884265946       14.74862537434741
H           -1.87902711913931       11.41408831201694       13.64752377574062
C           -0.38551871796227       13.06414785439914       14.63571530285048
H           -1.06197931254600       13.48369707858885       13.88045704490688
H            0.50833716403747       13.68917029806822       14.68462884898604
C           -1.06936392067915       13.07491812053510       16.00740239847873
H           -2.03818395100001       12.55517053084364       15.96388682892393
O           -1.25828356769250       14.42478878854469       16.37986888135916
H           -0.43324678943496       12.56270118456759       16.74201844185126
C           -1.76436682864404       14.56431070417018       17.69145291150987
H           -2.76409909571580       14.11440944270627       17.77120882513081
C           -1.84367037326505       16.05240751489140       18.01549064281085
H           -1.10426285863483       14.06310427984101       18.41265476011030
H           -2.52395137521684       16.54745329657616       17.30732968022517
H           -0.84653350702808       16.50207903629745       17.90400497012282
O           -2.31051350537967       16.19565729298141       19.33762603789771
C           -2.40597455102698       17.54503746143945       19.74479471543386
H           -3.10703423290302       18.09753144910685       19.10948288140665
H           -1.42716667503831       18.03588397090313       19.70687443497920
H           -2.77086581986395       17.52639663803218       20.76881375052564
O           -2.35934343186743        8.72789134106411        2.93167414665094
H           -1.11667871977111       10.28059962189007        3.50294752434014
H           -2.74837069712232       10.20948710649598        4.22170188825363
C           -1.36225933227685        8.17187190223170        2.09218108840911
H           -0.61676400326473        7.60455792718728        2.66011415414636
H           -0.84718491048414        8.96996516574748        1.53764780854289
C           -2.07252204724526        7.25342609622506        1.10268191883578
H           -2.48759532866103        6.38757198524811        1.63573340022114
O           -1.14913358601821        6.83523734716064        0.11984469380262
H           -2.90208370251863        7.80624283814929        0.63886385627019
C           -1.74573109164522        6.00907408352936       -0.85852054735706
H           -2.16282489649837        5.10326714718121       -0.39630764347101
C           -0.68469529544833        5.61124647228035       -1.87977834975662
H           -2.56323574286228        6.54115587560893       -1.36502943238651
H            0.17444534761216        5.15844914880544       -1.36187160212017
H           -0.32999579333886        6.50395638199548       -2.41407693491337
O           -1.26648062699766        4.69166858261725       -2.77303011578375
C           -0.39921063629681        4.31335374445274       -3.82617592672188
H            0.52332122812617        3.87210676651644       -3.43538630321976
H           -0.15195358124765        5.17755554012825       -4.45240199859538
H           -0.94561615398420        3.57425566543492       -4.40690470048260
O           -2.75581686022489       13.70705813032111        7.44055370592153
H           -0.70974958960473       13.88817017074924        7.60186475200607
H           -1.64432278117918       14.33513141335056        9.06043037133586
C           -2.94194677697802       14.96479557614033        6.83168001657325
H           -2.11462186636566       15.19246570298228        6.14389855206652
H           -2.98936938461851       15.75979744673893        7.58987457066572
C           -4.25442435217508       14.91836892411991        6.05647194317524
H           -4.20638611163243       14.11484921413301        5.30894175962676
O           -4.45273365325317       16.17160394056097        5.43877314832610
H           -5.07735139360473       14.69040335124151        6.74772581879550
C           -5.65379235970388       16.23492638195847        4.69686643469827
H           -5.65429606337204       15.48310714630212        3.89540036700791
C           -5.76656703297448       17.63110294241573        4.09293837050386
H           -6.51988280770969       16.04372042949692        5.34560749476214
H           -4.90337924748541       17.81689211351188        3.43767626474051
H           -5.75302661636691       18.37871728876221        4.89917915333838
O           -6.97103454575683       17.70489845755790        3.36482979211418
C           -7.17445969033678       18.96663895592479        2.76257025276785
H           -6.37138338960508       19.19654356878255        2.05377640952597
H           -7.22123404046084       19.75852786784651        3.51819037354711
H           -8.12383347249482       18.90048471207489        2.23689017184332
Cl           2.96866549604233        8.28019935071337        8.82399469168835
