113

O            7.37251562874140        6.08227116310703        9.55642980734305
O            5.13703597276523        6.79476696251373        9.47080136037362
O            2.27859457274957        8.48409009138217        6.05327821373883
O            2.51199648301471        8.92540632700186        3.75927350573516
O            6.06263535572979        8.53620485591515        0.60559730536320
O            8.29243521687337        7.80477089081055        0.69003322731330
O           11.15495367061055        6.11788454753086        4.10633917816120
O           10.91565858799348        5.66632364504020        6.39790951250593
N            2.10320224205844        0.83168541753462        8.52994317667053
H            2.13225125838902        0.88493939217731        9.55453917036032
H            1.82437812816898       -0.11760034351212        8.25801048082485
H            1.39444156223314        1.49562944532277        8.19807348555001
N            0.19884263232766        3.12618787203485        1.22516707502473
H           -0.04691135856781        2.15319390418129        1.00933751166601
H            0.77057482412338        3.50206532450936        0.46006361511712
H           -0.66436081163688        3.67899790433969        1.27689413766661
N            7.49349100235573        1.39364548320486       -1.17764936887336
H            7.59770037240658        1.83663805543026       -2.09745458563002
H            7.21036462763075        0.41649374955850       -1.31258088910209
H            8.40787408867367        1.41361346132477       -0.71210985752627
N            9.25976568296370       -0.87419558885504        6.12671752367477
H           10.28286118009424       -0.93815598830421        6.17767066807067
H            8.88116053391876       -1.80363051805208        5.91147627297394
H            8.91445294693275       -0.57934562598349        7.04746856548636
C            6.48566356714045        7.16371877162907        9.51741455276956
H            6.73381000269641        7.84246037220524        8.68472355085237
H            6.61406791234407        7.67875497217439       10.47482458632402
C            4.56356520408949        6.60848943546233        8.21171988161647
C            3.77336560897174        7.62649846216794        7.70030912067563
H            3.64656116447198        8.54148457109604        8.25806852828652
C            3.12303455860538        7.46084815403456        6.48697949809541
C            2.76414295041843        9.35080106931339        5.06800167980727
H            3.83926746428148        9.54579301761040        5.21486321212406
H            2.19267169089714       10.27663426175902        5.18863213678318
C            3.46779494111671        8.10933758451324        3.15172474457111
C            4.34023571733877        8.69352206375217        2.24627725934636
H            4.28896448631505        9.75468828675599        2.05749846521376
C            5.25935868031017        7.91289680150521        1.56188585764425
C            7.38308591271540        8.83264032480107        0.96166315474943
H            7.67923919005253        9.66268195205711        0.31230513697908
H            7.44299434361735        9.13760175342529        2.01947219319745
C            8.50621840778131        6.85344238549928        1.68903007245862
C            9.65501648782038        6.96385519727253        2.45751084395371
H           10.33326444959980        7.78748768096306        2.29640807056639
C            9.94901486720328        6.00300983177677        3.41312400510809
C           11.10812615711579        6.63379274859042        5.40610816442773
H           10.34813941938742        7.42890614088949        5.48332163922115
H           12.10532460523430        7.04590649058576        5.59082067984520
C            9.60074378492436        5.35189269354508        6.74561917697397
C            9.08638294686868        5.90362480968984        7.90906500752232
H            9.68749396575759        6.58224184724457        8.49429692880942
C            7.81279613167629        5.56229798812356        8.33833681773854
C            5.63346637424918        4.34799615194870        8.07559033913348
H            5.63110868363588        4.47515803603823        9.16538041435555
C            4.72904533162939        5.41756761101922        7.50402380491807
C            4.09293784727132        5.28851726060234        6.27814087418458
H            4.23929433161474        4.38645579155957        5.71030984982698
C            3.27230606952232        6.27931121517072        5.75992622546446
C            2.57576681387843        6.14473617630200        4.42383072553372
H            1.69090046661708        6.79256883918050        4.45727777350464
C            3.51788464541484        6.73708884884768        3.39876484728256
C            4.46644263360299        5.98277062246516        2.72394817744220
H            4.53369956088967        4.92885043734681        2.92977158399789
C            5.32867208845177        6.53811526031893        1.79023850630633
C            6.36422275229047        5.72164648391075        1.04924852995821
H            6.57287199208854        6.24708053792993        0.10890315336089
C            7.62576285177726        5.78856949188805        1.88183992173439
C            7.92610877966492        4.85834529855956        2.86588194616119
H            7.23723802361260        4.05143935041537        3.04402401287026
C            9.08430626895910        4.92872716066525        3.62549347461463
C            9.41651857739837        3.91668478035592        4.69985218970983
H           10.50763674598470        3.91655697844155        4.81463154470391
C            8.83658436222796        4.46728892725091        5.98410893137743
C            7.55363881245906        4.16716721187181        6.41753835698416
H            6.94501288564839        3.51083319965114        5.82067748056922
C            7.02932500785344        4.67888088130138        7.59510077991207
C            5.20675167948434        2.91530963040406        7.75541524451759
H            5.16407347308943        2.75655023117216        6.68096618079842
H            5.96484504173117        2.25010516245804        8.16758981421682
C            3.84474348203040        2.58544018731696        8.36349599478754
H            3.90772032608452        2.67600503903931        9.44862891031926
H            3.11657667563140        3.31378076725888        8.00442614299312
C            3.42956280782797        1.17336846261137        7.96466729837739
H            3.38378519270910        1.10203406319686        6.87809623432098
H            4.16571120983756        0.45782844027109        8.32855659218228
C            2.11765098449530        4.71890120083782        4.11640075937013
H            2.96891934201181        4.04665447285417        4.04610494595679
H            1.49285850259012        4.39056613889596        4.94647018873493
C            1.32225282580090        4.65698603954030        2.81352787115351
H            0.43202117205548        5.27999928406218        2.90961713506045
H            1.93734338739312        5.06666062137330        2.01132552656227
C            0.93792471819395        3.21372994278565        2.50654257378185
H            1.83930148296122        2.60445346071732        2.44083066817439
H            0.31106222110084        2.82196254331737        3.30650790524066
C            5.90078553922134        4.30317452427269        0.71594897298539
H            5.71392712825000        3.73448082359875        1.62331319512792
H            4.96309126295746        4.38525399645807        0.16742785446258
C            6.93560116730614        3.56720585056811       -0.13350319307708
H            7.05565558426075        4.09284779479028       -1.08159636984545
H            7.89259705867816        3.58924107899969        0.38924143768451
C            6.49173218844307        2.12776277905977       -0.36924319830263
H            6.36907751029384        1.62494578099714        0.58954875082455
H            5.53667259921738        2.11695670057378       -0.89207203573701
C            8.96574606215693        2.49613000988933        4.35794440765793
H            7.88486856676861        2.44932941773535        4.25336931015378
H            9.41141178544114        2.23428117346520        3.39894628867886
C            9.40721715432576        1.49518556314404        5.42439117755492
H           10.49682325125426        1.47929336051919        5.46980773647344
H            9.03255889887365        1.83025883256276        6.39238275490656
C            8.86203761430186        0.11009646279609        5.09307401375901
H            7.77409902844001        0.15156488302226        5.03999963667028
H            9.24488889432254       -0.21460242952757        4.12643884046126
Br           5.00071264045953        1.91540074942819        3.85909959936704
