139

Cl           0.22327151845340        0.23041255589086       -1.63744479857317
C           -1.64422588897267        3.83473840132310       -1.88205048762821
C           -3.23831805813477       -1.57524893866476       -1.71071953986962
C            2.10343919622295       -3.37348865132725       -1.49362287132283
C           -0.88640597085810        5.00216958905462       -1.91083488044274
C           -1.52989901186755        6.22925853289686       -1.98515206422753
C           -2.92315914218111        6.29165304415225       -2.03025481806917
C           -3.67644375640002        5.12497765649070       -2.00017978427972
C           -3.03038161154757        3.89041352597762       -1.92592955135826
C           -4.41720870090636       -0.84349768431803       -1.76317833103344
C           -5.64817004137527       -1.48479372519541       -1.76006435620348
C           -5.73247909667080       -2.87371546737212       -1.70399881748795
C           -4.55156261734099       -3.60263853875713       -1.64741757269137
C           -3.31817001773325       -2.95831966063021       -1.65077415765856
C            1.35344775927584       -4.54117844361394       -1.47226137113375
C            1.99340374106394       -5.77958714779393       -1.41037285039142
C            3.38087541719054       -5.83258301868113       -1.36954134416026
C            4.12932659541697       -4.65512208084227       -1.39005994403857
C            3.49404107539803       -3.42310059427443       -1.45230995265995
N           -2.15836060155518       -5.06344104184137       -1.55332288387923
N           -0.95695978093363       -5.49260078372889       -1.50644793612816
C           -0.09646117935650       -4.43984806073222       -1.51540049925369
C           -0.86471985707541       -3.28992573618605       -1.57265107848536
N           -2.14496504765480       -3.72377026152373       -1.59474048195533
N           -5.13338625829954        2.54178050879269       -1.96934366446104
N           -5.47191536731330        1.31143290310149       -1.92542143116712
N           -4.36940516695872        0.55625427836650       -1.82306436196530
C           -3.28064006431311        1.35699151960406       -1.80071083144367
C           -3.77964857101760        2.64459744619686       -1.89694712880133
H           -1.15001253568516        2.88004315598228       -1.82877289308155
H           -2.28408186897344       -1.07930423055418       -1.71803039310364
H            1.60562936748469       -2.42045121681900       -1.54241971559199
H           -0.95648480167266        7.14172885445241       -2.00934274531573
H           -4.75363304544886        5.13516313925557       -2.03315875366317
H           -6.52850123514083       -0.86513233220037       -1.80392059920139
H           -4.54207150462397       -4.67769960922831       -1.60053204406407
H            1.38365140525640       -6.66810208045198       -1.39594290673210
H            5.20544423982944       -4.70889610688127       -1.35798073794589
H           -0.58464835613597       -2.26060116167540       -1.59420594135557
H           -2.27932519094062        0.99743119752869       -1.71965802343366
C            0.56286651524742        4.90046380290707       -1.86544081815944
C            4.24256444057060       -2.17741373402141       -1.47730530810296
C            3.74269252913435       -0.88821295031193       -1.53186250629838
H            2.73932230081786       -0.52644711745941       -1.56249814110132
C            1.33025322216392        3.75317371693732       -1.76828657222017
H            1.04914266893281        2.72610347652158       -1.69996011391507
N            4.83346302223452       -0.08953969482129       -1.53698784581407
N            2.61088786739652        4.18706460265891       -1.76987556498177
N            2.62432138805175        5.52426437720404       -1.86160206114771
N            1.42342028737448        5.95179415776012       -1.91811285449150
N            5.93736755466094       -0.84831672112590       -1.48833823773476
N            5.59827070379275       -2.07809131633119       -1.45299892446375
C            4.88260110910789        1.30992532702268       -1.58560725204618
C            5.01664911391397        4.06947923083679       -1.68518979270442
C            6.11316260319769        1.95168534909663       -1.57004649929648
C            3.70430756496734        2.04081869841559       -1.65243147034886
C            3.78405525197407        3.42398945181660       -1.70050353125442
C            6.19728660044849        3.34080635389502       -1.62073862621846
H            6.99310769910698        1.33205407421217       -1.51929693664434
H            2.75060696278862        1.54423577347808       -1.66876027140845
H            5.00649300674474        5.14472272308495       -1.72705589036593
C            7.56744302186638        4.00053428765203       -1.60883623310177
C           -7.10294475758313       -3.53314815070548       -1.70605425592135
C            7.48170770948133        5.52857710057894       -1.65827558853432
H            6.94268100345020        5.91834735352016       -0.79812205717439
H            6.98895190432788        5.86427714800096       -2.56751015766143
H            8.48586877061591        5.94674225920106       -1.64484495325344
C            8.35637222980708        3.51773511394283       -2.83522244891923
H            8.49948131092163        2.44108907362242       -2.81541277020700
H            9.33403970886737        3.99346517090287       -2.85919541902699
H            7.82381771994650        3.77412639317299       -3.74897773022060
C            8.30299927299957        3.59730561236094       -0.32264786845773
H            8.44887220702103        2.52230775968629       -0.26890121324042
H            7.73184938847614        3.90795238513818        0.54999578099766
H            9.27814753134317        4.07749372586056       -0.28667316605740
C           -7.88947962753140       -3.04444908065655       -0.48115415106569
H           -8.86765024111105       -3.51905470830443       -0.45422904725629
H           -8.03166777892522       -1.96781785398045       -0.50458301145149
H           -7.35651084051445       -3.29779237277696        0.43330770780969
C           -7.01764184986203       -5.06094253080948       -1.64891851765570
H           -8.02200778069456       -5.47876531388254       -1.65605593638052
H           -6.52174287559480       -5.39209395563696       -0.73967848154982
H           -6.48210321113110       -5.45564903217612       -2.50900781878611
C           -7.84134873589734       -3.13609455573797       -2.99318844343414
H           -8.81601150315024       -3.61734928736372       -3.02565707364773
H           -7.27107454470850       -3.45001762037884       -3.86536481547275
H           -7.98800403432458       -2.06141420048740       -3.05110194085658
O           -3.44077579918490        7.55347361568690       -2.10285672260947
O            4.11654611692799       -6.98165991080090       -1.30781150290599
C            3.45472055235800       -8.22908391853174       -1.29745227124347
H            2.79778606374317       -8.32222958983382       -0.42351559627600
C            4.55046524706594       -9.29172386529278       -1.23670218591134
H            2.85483632175324       -8.36661797438936       -2.20590140986167
C           -4.84123084268387        7.72658008545560       -2.15601782712611
C           -5.08133251108368        9.23269525237468       -2.24326285915276
H           -5.26879168317830        7.23141624025409       -3.03691820034982
H           -5.32418236630406        7.32504851540299       -1.25622279474914
H            5.21584720553333       -9.17203099418358       -2.10456640093460
O            3.96041047920181      -10.57213448954485       -1.23637111322372
H            5.14864359170117       -9.14065465058501       -0.32594160545630
C            4.92252711295458      -11.60229792601343       -1.16949898204945
H            5.61010340555633      -11.54579886733779       -2.02593274419704
C            4.20799909939153      -12.95053971812681       -1.18450587490128
H            5.51786593937787      -11.51616220269793       -0.24881030463980
H            3.61561960275968      -13.04368033707094       -2.10601521648822
H            3.52154220696531      -13.01431197278316       -0.32810718690687
O            5.19062387839511      -13.96066012749113       -1.11614549056556
C            4.65118787816857      -15.26462647920926       -1.12867413047663
H            4.07407509889891      -15.43885237842224       -2.04834378269310
H            3.98084395782998      -15.41761008948733       -0.27056820462592
C            5.80970727763918      -16.25537867773566       -1.05705231660408
H            6.48172880843664      -16.09047634763095       -1.91236188480214
O            5.28877344176660      -17.56461920530464       -1.07772899196617
H            6.38248906004985      -16.07920682165220       -0.13443551747283
C            6.29243817286071      -18.55276423573982       -1.00941673586262
H            6.97796100375720      -18.47954121563134       -1.86197409586262
H            5.77985859764777      -19.51217460457590       -1.03279483534461
H            6.87037994323840      -18.46549350807505       -0.08175096803182
H           -4.63332174044890        9.72046667695605       -1.36487521406460
O           -6.46783500973024        9.48261695010624       -2.29626133145212
H           -4.58266297986288        9.62488949593291       -3.14194228459207
C           -6.75769364627280       10.86056441545622       -2.38940950055765
H           -6.34715578931782       11.40156213809484       -1.52444688673758
C           -8.27159766622073       11.04725061618545       -2.42991540083664
H           -6.31399243186051       11.28831584322626       -3.30034393675441
H           -8.71971065874537       10.62884758407855       -1.51721573829017
H           -8.68678435131274       10.50828466289220       -3.29352019808188
O           -8.53408063773010       12.42999356006256       -2.52823832374116
C           -9.91155435526830       12.73328505882607       -2.57404752608045
H          -10.42108894693580       12.36832701723488       -1.67056974957678
H          -10.38548325785534       12.26242752029653       -3.44748600574495
C          -10.05854673477604       14.24941915026644       -2.66707519985854
H           -9.57776555497193       14.71559136058636       -1.79417476248371
O          -11.43011094085949       14.57022580590431       -2.71089193235010
H           -9.54593038979406       14.60935451026195       -3.57148530474378
C          -11.66303946521986       15.95732918377282       -2.81169752917231
H          -11.24537555338107       16.49194993286576       -1.95042916254732
H          -12.74315029779171       16.08608746550567       -2.83420174460374
H          -11.22342298857838       16.36574282889501       -3.72944439532232
