263

O            0.51748118584007        8.91923505417802       -0.84932692329642
O            1.68183787798518        3.69465093638989       -3.44977835526386
O            1.34645220947305        4.31773192881745        2.26802995514046
O            0.25740442556726        9.07488413008748        5.77353842693184
O            5.65492731120142        6.41186187002864        4.83588503634343
O            6.25628845957447        1.01350786788613        2.28447555908756
N            2.19224330052077        7.79051588136007       -1.95530294814821
N            1.17530629463096        6.80483139329876       -0.24557090774569
N            2.77949649425927        5.64918638662242       -2.94364284646521
N            1.50452938719972        4.70109083965920       -1.39331981582000
N            1.02992056234379        6.59395767428102        2.15673027074073
N            2.40222749875224        5.76422004607299        3.69702135748205
N            0.59656786425683        8.50460614397089        3.57129905270331
N            1.95026465723966        7.66704376555264        5.11414445573694
N            4.63210123380522        4.84022158836322        3.51078155636477
N            6.71428135767175        5.44112944523212        3.04517558348836
N            4.79433648654874        2.79097612613400        2.25195143320023
N            6.97410091008598        3.19375682825443        2.15702039090187
C            1.23872323797102        7.95048814647316       -0.98705273540032
C            1.95902003049525        4.58720340988699       -2.67112292033449
C            2.90628593140125        6.52921925499654       -1.81586192758642
H            3.95156759042359        6.73503591960119       -1.57137153760341
C            2.11052784597597        5.80885853208873       -0.69931135435083
H            2.72475267110697        5.45533442500041        0.14285058180532
C            1.57646134811929        5.45108214640811        2.65578288275677
C            0.86915956890382        8.47461689828576        4.90806450188036
C            1.56777664233903        7.77452515756508        2.80503612710073
H            2.03657021412957        8.41681309013836        2.05290415658486
C            2.51526933439986        7.19483892088077        3.88250358349095
H            3.56805674233627        7.48968440217346        3.80416836397076
C            5.65927157224652        5.65109609760098        3.88285260474965
C            6.03182261761785        2.20726388958760        2.23611446151288
C            4.88084728205436        4.21754048258340        2.21832760570485
H            4.22080196705379        4.65744997027390        1.45994130776202
C            6.38933676607608        4.49950196865972        2.00157504391399
H            6.64064589576959        4.93307038278661        1.02207886065653
C            3.65865750295546        5.59037075313473       -4.09594866511418
H            4.01988495604539        6.59684710691879       -4.30817279569216
H            3.04241874070106        5.25918431690763       -4.93620492076145
C            4.82070338457076        4.63815780852695       -3.93810226047803
C            5.60781543669711        4.61826567495718       -2.79217066608966
H            5.39054571800225        5.29060893074165       -1.97347402154645
C            6.67250162915166        3.73893993289394       -2.68116709195576
H            7.26299158298716        3.72516433773181       -1.77639870898011
C            6.97587011616481        2.87403380842726       -3.71761843815823
H            7.80498515799018        2.18996053546916       -3.62709949237915
C            6.20479152007437        2.89248074403641       -4.86678405949704
H            6.43449477700066        2.22211364140352       -5.68061542072155
C            5.13480273712248        3.76353473013398       -4.97213665158358
H            4.52788546135859        3.76571798454110       -5.86472359597370
C            0.71021842612796        3.65909447132713       -0.77623918671613
H            1.05815447686084        3.51369400350011        0.24781248672811
H            0.90701893188845        2.74751713733826       -1.35224708382605
C           -0.77010102679961        3.94930897459703       -0.79211581162825
C           -1.55282489228995        3.62538730932382        0.31031115542765
H           -1.08328826007990        3.18732510854629        1.17921010464066
C           -2.91542596058662        3.86962460851612        0.29829029995991
H           -3.51289048858873        3.61550134126663        1.16105056847977
C           -3.50808092057077        4.44398886592290       -0.81351722513459
H           -4.57008835713341        4.63814496289734       -0.82224262542541
C           -2.73383242614899        4.76959577029389       -1.91456392570550
H           -3.18973125157811        5.21483759612222       -2.78652690497165
C           -1.37264197489305        4.51995375442533       -1.90592816259543
H           -0.76910218169157        4.76001773639840       -2.76870734733769
C           -0.33143707150256        9.45060799735804        2.98161435196130
H            0.11691541406513        9.84535309090228        2.06553132205401
H           -0.45096165602975       10.26193684568062        3.70876042639010
C           -1.68064613362877        8.84541834755450        2.68340574362808
C           -2.38795143289239        8.19984984747756        3.69027806849257
H           -1.95891876199201        8.14508307684097        4.67975211399350
C           -3.62909193992557        7.64764103797955        3.42921511640513
H           -4.17076140320460        7.14863980872391        4.21910372574219
C           -4.17837456284254        7.74163497753437        2.16073868124688
H           -5.14825720251679        7.31289327912192        1.95766648890831
C           -3.48211167783362        8.38943149280487        1.15508798614514
H           -3.90369366824227        8.46697969874503        0.16410719730768
C           -2.23659298491943        8.93796634000709        1.41348153515929
H           -1.69140637102746        9.43753843740408        0.62486148155101
C            2.64972427232963        7.59891914979828        6.38099557438287
H            2.29311752493343        8.44910563378995        6.97293508271876
H            3.72166062990041        7.71033202587435        6.19278294101088
C            2.38076602738531        6.31690967380444        7.12763487980581
C            1.07561085853431        5.87882862067594        7.31451170716304
H            0.26209229700988        6.47097943329324        6.92248961593290
C            0.82347517816370        4.70328279939844        7.99906504235105
H           -0.19470725776949        4.37101923242764        8.13749989525671
C            1.87363356272725        3.95793942184151        8.51060617296002
H            1.67627517388728        3.04213872321461        9.04755204449293
C            3.17643183477419        4.39206008260319        8.33399651602842
H            3.99892295936240        3.81611333738190        8.73159546845287
C            3.43014291925218        5.56554274899064        7.64281669083171
H            4.44695982134784        5.90225141650791        7.49669954906541
C            3.58211640812269        2.02608902486822        2.04335829374963
H            2.73036709034378        2.65777653785565        2.30693105421473
H            3.61557981310702        1.16850291423993        2.72122363491633
C            3.38811277677400        1.53228641827726        0.62879255445352
C            2.53362110497885        0.45732327519205        0.40979027551947
H            2.05577564145078       -0.01673112207092        1.25404518641240
C            2.29033755213734       -0.00148639316892       -0.87146548659771
H            1.62138870552068       -0.83473018533521       -1.02578501971580
C            2.90536564130368        0.60491977289471       -1.95464321353774
H            2.71874638346648        0.25649416968040       -2.95862440860226
C            3.76041399187770        1.67173017066955       -1.74609721704921
H            4.23978021844910        2.15278853091128       -2.58437463639270
C            3.99602314370624        2.13565658495672       -0.46217457683548
H            4.66594543062820        2.97249693451653       -0.31770876137021
C            8.39269849905558        2.91012066322033        2.09880085246504
H            8.86464020348222        3.60666667828128        1.40137886085213
H            8.48363939769324        1.88897106542091        1.71070469707846
C            9.06731708190236        2.99049393500684        3.44753128684171
C           10.32898059577516        3.56309897397711        3.56286073483785
H           10.81177055653565        3.96393923469157        2.68323883804705
C           10.95903640952564        3.62765443391062        4.79425225610208
H           11.93958330579700        4.07337573125085        4.87148996219607
C           10.33189050583594        3.12614215112111        5.92242567691337
H           10.82109598959839        3.17939127198346        6.88349193367485
C            9.07513907377882        2.55392369459148        5.81359674272940
H            8.58248367522426        2.15670567767304        6.68873166099505
C            8.44770568712014        2.48238185766789        4.58219823380541
H            7.47427955687771        2.02305163957906        4.49431937030974
C            2.43140157051719        8.78640814963613       -2.96954911791945
H            1.64183744563621        9.53314971390427       -2.84586120134174
H            2.36601041240902        8.32368882146476       -3.96080706231854
C            0.31885946080319        6.63222476478096        0.90382724590039
H           -0.37555601815393        7.47395578307508        0.90610441891785
H           -0.22564656041789        5.68847392705878        0.81444889565669
C            3.37112251283944        4.83316326968052        4.21377749897213
H            3.58525389902294        5.09370986713759        5.25305909896742
H            2.93318652327587        3.83565422709154        4.15212586863406
O            9.73472996173498        5.76157645030358        0.93575523914599
O            8.70096748323656       11.27210304904339        3.33912359995222
O            9.16221599448972       10.19626708425836       -2.44661966974165
O            9.28095128532594        4.84044945636074       -5.26477788968773
O            4.54744377376019        8.46518405299527       -4.84706124738315
O            4.39700072607618       13.89179814301811       -2.41330111285696
N            8.23291452677855        7.07175881548965        2.08541030769279
N            9.29515208839056        7.93617372487395        0.34019679668219
N            7.64516145999000        9.26386317661726        2.94362337067924
N            8.98487315156589       10.10855980065313        1.38044074079308
N            9.22300084082534        7.93065196148800       -2.05842103859967
N            7.85402715961740        8.71755053698240       -3.61846663078005
N            9.24079395652879        5.78328061227535       -3.17021254369906
N            7.86105413963784        6.56412292537519       -4.71825348988223
N            5.78312701385289        9.93980367624829       -3.60402465935416
N            3.72796053073959        9.42477762247854       -2.92625008790273
N            5.78632824669447       12.05952094139577       -2.46884368373114
N            3.60469616035686       11.74159824343882       -2.20779706264726
C            9.14654330782983        6.81312587084282        1.09874966396397
C            8.46080598310668       10.32628989076197        2.61785501523908
C            7.56145301193680        8.33508033323022        1.86807568688609
H            6.52043522403263        8.14899946077486        1.57242988299174
C            8.37834173706477        8.97841004742740        0.73259836221146
H            7.77227248549409        9.29512227168370       -0.12826291312958
C            8.77674868713053        9.06349214822646       -2.67649818855564
C            8.84003891800156        5.64820258152638       -4.46867032409986
C            8.46953976438270        6.76229552633006       -2.46419795286147
H            7.96611504323244        6.31916099733744       -1.59242810814640
C            7.50767502755388        7.31101067608212       -3.54667127178319
H            6.44243869206795        7.19882553179872       -3.30484652600683
C            4.67315173224354        9.19841489861165       -3.88102142117930
C            4.58111162678998       12.69127144109864       -2.35995925463792
C            5.65434540607470       10.64119811398020       -2.33911992942621
H            6.34667229912364       10.23288135738844       -1.59405774289695
C            4.16677751021456       10.43599225975182       -1.99615739448677
H            4.00763724391255       10.10446091135985       -0.96866581178954
C            6.67891868254065        9.36941191870978        4.03115727246875
H            6.24907970173003        8.38238722170410        4.20391793543177
H            7.24213769155085        9.67621069546479        4.91623978673903
C            5.60050130949032       10.38925504517193        3.75480717115030
C            4.46647076134556       10.07878607697435        3.01495959682841
H            4.32722856084662        9.07041911863405        2.63617090759380
C            3.50870194943472       11.03241545661731        2.72635121943911
H            2.65895781260683       10.76705784341402        2.11715532747758
C            3.65306051371143       12.32082741605329        3.21289538168032
H            2.90560290595093       13.06611380859269        2.99081437974043
C            4.76627867279633       12.64304273550959        3.97092147863973
H            4.89047588215099       13.64767046618445        4.34483110497077
C            5.73070758811487       11.68656450697604        4.23924176307596
H            6.61112180854363       11.94427837825065        4.80739173234482
C            9.80383029339774       11.08891990015654        0.69754306123256
H            9.42568834584271       11.21894265431463       -0.31963459804510
H            9.67744824120953       12.02868072100924        1.24582762632772
C           11.26098063339170       10.69998124386898        0.67212579256915
C           12.01331799045629       10.88226031486385       -0.48233394790632
H           11.54054223057337       11.29700626636429       -1.36091406128316
C           13.35160918305196       10.52716637459246       -0.50846509564759
H           13.92563390505165       10.67203602141812       -1.41126898159195
C           13.94782168508116        9.98195203704788        0.61592092376343
H           14.98971500024320        9.70008476490095        0.59368362353024
C           13.20360089628894        9.79989283341463        1.76988322405497
H           13.66362546672764        9.37975211051200        2.65200760681163
C           11.86806483621685       10.16110135903658        1.79950165108615
H           11.28658458681613       10.03055466197493        2.70041006128275
C           10.20561383306447        4.89916983359922       -2.55032428852285
H            9.86628145449721        4.66307411164970       -1.53832399505752
H           10.21070616533376        3.98569546340985       -3.15507077631906
C           11.59882175194263        5.47872029944004       -2.50820983415226
C           12.14020991811255        6.08797886271802       -3.63295903632870
H           11.55598513363766        6.13469931544244       -4.53957184021283
C           13.41675408584251        6.62017942221945       -3.59446235329876
H           13.82626428490365        7.09296589934667       -4.47482286421191
C           14.16859642416906        6.54105388345439       -2.43368091370664
H           15.16496023865887        6.95571994889514       -2.40448187671028
C           13.63938816542645        5.92664877279059       -1.31170315154862
H           14.21999142519095        5.86052428329487       -0.40381681464796
C           12.35919607210513        5.39972092228503       -1.34721350622652
H           11.94085130889792        4.93077132118821       -0.46829844765663
C            7.09976634488884        6.57594579441210       -5.95236791485431
H            7.18923497618281        5.56998842199739       -6.37603007123576
H            6.05394078186218        6.77549868557453       -5.71227256752549
C            7.60890074271174        7.58791414893068       -6.94853488525816
C            8.95714457414531        7.62801515522842       -7.28183610022673
H            9.63253201675441        6.92164753580023       -6.82331719467429
C            9.42394827556978        8.55095535478761       -8.20084708550953
H           10.47390979525383        8.57332119897757       -8.45267064252785
C            8.54589870121373        9.43775698682740       -8.80275132580580
H            8.91026697867722       10.15552396327427       -9.52257215523687
C            7.19953096172671        9.39762643467681       -8.48225932461567
H            6.50939975828564       10.08380299047185       -8.95048898130946
C            6.73226135203405        8.47828245381262       -7.55716698311671
H            5.68274204806100        8.44796376140089       -7.30061023534670
C            7.04745052290478       12.77852285279807       -2.43086716738977
H            7.84833065313467       12.03720881465227       -2.49076756699070
H            7.09601037468676       13.43237148239455       -3.30653484739138
C            7.21756123952587       13.59971577913542       -1.17621023014835
C            7.69121138564408       14.90276240435472       -1.25367791534743
H            7.90419482091463       15.33260897505928       -2.22101753237529
C            7.88710643006490       15.65045196556844       -0.10593399179126
H            8.25436204505745       16.66303607334136       -0.18174619692485
C            7.60935673233802       15.10379399646257        1.13533874607064
H            7.76331179175856       15.68237513696715        2.03364621777765
C            7.13101709116824       13.80743478099677        1.22173265132362
H            6.91881549948440       13.36160433331454        2.18189989495181
C            6.93609388660109       13.05999117647785        0.07300050810475
H            6.55757630577684       12.05069220915333        0.16086498620459
C            2.24107369711312       12.09014054526483       -1.85295124102027
H            1.89004223820381       11.38945687567779       -1.09037327679116
H            2.27666303984910       13.10140270962916       -1.43041357722811
C            1.31606779132414       12.08102835346140       -3.04576490749950
C            0.08199001418134       11.44591836828524       -2.98045183698536
H           -0.20769781832698       10.93519977009338       -2.07363984089187
C           -0.76594592400464       11.45302886792169       -4.07608006352352
H           -1.72192102210439       10.95496415409491       -4.01289065088459
C           -0.38716591051155       12.09086032145112       -5.24469946042433
H           -1.04706524100055       12.09318103492611       -6.09942440118623
C            0.84147916046460       12.72741338330816       -5.31414504085921
H            1.14115871938921       13.23045725531118       -6.22146965562979
C            1.68710868610036       12.72670977022718       -4.21916408531907
H            2.63932938022627       13.23399219662351       -4.26158529685368
C            7.96232103479693        6.15102399503754        3.16088782665366
H            8.79388997993239        5.43983498995182        3.17080544790555
H            7.91758648821882        6.69514546610002        4.10877746019932
C           10.05495265221138        7.97317319521908       -0.88569266325389
H           10.72433631818161        7.11057015855640       -0.87212197988490
H           10.62855161825596        8.90225557667948       -0.93154988813747
C            7.03354082971555        9.70191139444009       -4.27904817871217
H            6.79519327750092        9.35245739079859       -5.28649202679259
H            7.60823406061420       10.62904147094558       -4.31639183656679
O            3.02870923522607        9.03381817069730        0.42595349871761
O            4.68252775609399        7.17571244185444        1.57303839496677
I            4.74940060652643        8.65786650769967        0.55451267257843
O            5.69478448576023       10.15097338198076        0.71369091055998
O            5.45545760380501        7.97920317241029       -0.93473608258405
