191

P           39.71902946578028       19.86001085509804       10.31196990127952
S           34.18277583453258       15.72858483585196        8.66735724459600
S           32.87745528968014       20.82084115485585       11.93822363128633
N           35.80859093618313       15.44810570988313       10.77668092870787
N           34.78779150687787       17.42344565477821       10.63791299883043
N           34.17074131798783       21.84976413630760        9.83125256466756
N           34.22378181036911       19.62676453094793        9.96745823345678
C           34.96166793554261       16.21527050962312       10.04743641294719
C           35.33249462930076       17.34903532095754       11.98552869226633
H           34.53153628658241       16.96681107445002       12.64143007297212
C           36.40934796492573       16.28265323303547       11.81349491045395
H           37.31980810002825       16.74505828946266       11.40057467569656
C           36.74432931107374       15.71509259241719       13.17892284314171
H           37.47734212896489       14.91118541689626       13.11463477407617
H           35.84575418605061       15.32281932302233       13.65745206189582
C           37.32319412020244       16.88871877583017       13.98039243294063
H           37.54789359864361       16.55780415451563       14.99498215070812
H           38.26055943499775       17.19666392496627       13.51218782603221
C           36.38479618838781       18.09923549582512       14.04217108021304
H           35.49867679788379       17.84326236342389       14.62698165246608
H           36.89695633008039       18.91620227910239       14.55116724917378
C           35.93179524849491       18.56944076826260       12.65306631972034
H           36.77888772651388       18.94382627410678       12.07478915251096
H           35.19617482102726       19.36831715923826       12.74976985483247
C           33.72304872984375       18.32458379071243       10.30211411193280
H           33.18412938187581       17.89821750114113        9.44522403878812
H           33.04475511603032       18.43895268331700       11.15849041684869
C           33.79569654941996       20.76936807440175       10.55897980798905
C           34.66787837223578       19.95517988241035        8.62084147649501
H           33.78288554183575       19.90630734149161        7.96341188544876
C           35.09982148749265       21.40755367241521        8.79520370622232
H           36.11988724941448       21.43853104353073        9.20977584082216
C           35.12320321592112       22.06796373967779        7.43067288939620
H           35.37948836274864       23.12513178914568        7.49679745518861
H           34.14758966780937       21.98081615146383        6.95013511865967
C           36.19624241435950       21.31819099735325        6.63005491155865
H           37.16545464723567       21.49798220931416        7.10010652997179
H           36.23609807935787       21.71781649395118        5.61609083528170
C           35.95487257948238       19.80580318344981        6.56603081498888
H           35.05564833715684       19.60545795234914        5.97952982901989
H           36.79726159243172       19.33593519574995        6.05774493796772
C           35.78114606772623       19.17395344086264        7.95405308501841
H           35.52030707799680       18.11995600295766        7.85551961044226
H           36.70300926966932       19.25216001726283        8.53390070590670
C           36.37257801654267       14.21189318379315       10.30507023778809
H           35.73093922621498       13.86291780893391        9.48833237085978
H           36.37684023969977       13.48216086521358       11.12240012386705
S           43.84822249307953       14.32539494427557        8.66743284750746
S           38.75661700495416       13.01998086071836       11.93942547254741
N           44.12918393833163       15.95257876734933       10.77569830191017
N           42.15394193805214       14.93148946810381       10.63808171606044
N           37.72736445220979       14.31363320863498        9.83279320937438
N           39.95034846443536       14.36736715098921        9.96926626135392
C           43.36191963087095       15.10509349513251       10.04719021763572
C           42.22834565168868       15.47745010141973       11.98513311090979
H           42.61052891371138       14.67711692329932       12.64182164401281
C           43.29473229079638       16.55415356594721       11.81214205215746
H           42.83235224056934       17.46430913019330       11.39853243041929
C           43.86222895262525       16.89013728337641       13.17735062870580
H           44.66618083927038       17.62305281296342       13.11260950146711
H           44.25440121796753       15.99189843584750       13.65658566802193
C           42.68854376376986       17.46966653871862       13.97828011275377
H           43.01940453161875       17.69515473572476       14.99270974265506
H           42.38062599971076       18.40664525203663       13.50929924107014
C           41.47790854769826       16.53146979453466       14.04077177818800
H           41.73362414723322       15.64584507328125       14.62643242822007
H           40.66098283099883       17.04427357817281       14.54919099221676
C           41.00784127660037       16.07728542075956       12.65201444255257
H           40.63347245007203       16.92385713529003       12.07296943437116
H           40.20897332153719       15.34171894620378       12.74922153338505
C           41.25264410300503       13.86659041319791       10.30340421457235
H           41.67849324296760       13.32713868889948        9.44657856262562
H           41.13865414894843       13.18877295644909       11.16020966951028
C           38.80784913703062       13.93868259318917       10.56049331507211
C           39.62199915663543       14.81233153798236        8.62296962123688
H           39.67156833210406       13.92791160635038        7.96482521420320
C           38.16934386517205       15.24338117461529        8.79723289231013
H           38.13766779028076       16.26327160448202        9.21220688055225
C           37.50943058905307       15.26697036230901        7.43245876372350
H           36.45205992462877       15.52248141657132        7.49824665890095
H           37.59747770751984       14.29165463847383        6.95149443484315
C           38.25880964861613       16.34092563428705        6.63266872131867
H           38.07815034826327       17.30978190586316        7.10309187243100
H           37.85960710180196       16.38095582407286        5.61855210030394
C           39.77141657561812       16.10082750727119        6.56912928369733
H           39.97283807578243       15.20226231038074        5.98200027690293
H           40.24075265975691       16.94405070972670        6.06172775151382
C           40.40284200488071       15.92653109147547        7.95726780714069
H           41.45701848702267       15.66635328218885        7.85893701523652
H           40.32395735573878       16.84795083906830        8.53772347618605
C           45.36542247345285       16.51599116211592       10.30342574142504
H           45.71410065221765       15.87361287131865        9.48714284728753
H           46.09527988868685       16.52071855280685       11.12064190821654
S           35.58436383460137       25.39487993727481        8.66446388804471
S           40.67687094824006       26.70028972899023       11.93496550737982
N           35.30560672989148       23.76883969847345       10.77386958053724
N           37.28045889123415       24.79036540836665       10.63410084102017
N           41.70675915540336       25.40692528917508        9.82854775374282
N           39.48366043629515       25.35440863549118        9.96334732711569
C           36.07206153808210       24.61607746978649       10.04423420539569
C           37.20688914937349       24.24562785098912       11.98176314564460
H           36.82442477902883       25.04635878154737       12.63779921063607
C           36.14105738426672       23.16819961387221       11.81002228736357
H           36.60384111730222       22.25818166326642       11.39650230071507
C           35.57433046218716       22.83237707888626       13.17557817301973
H           34.77091756829896       22.09881813025374       13.11137331507168
H           35.18159552103633       23.73052608199916       13.65452868785697
C           36.74866716510822       22.25417275924363       13.97646096143987
H           36.41827651993313       22.02891383729606       14.99109660404578
H           37.05731019230737       21.31719406644072       13.50792062321917
C           37.95837816110331       23.19359103086306       14.03806759489083
H           37.70178394936075       24.07946833089863       14.62297455498936
H           38.77588997809109       22.68209464447579       14.54683383103121
C           38.42785326902119       23.64701825543998       12.64886665962804
H           38.80259398819857       22.80018016516281       12.07042954371839
H           39.22628973338632       24.38312458579094       12.74540928475840
C           38.18135397316809       25.85508649931683       10.29756981305401
H           37.75487268400077       26.39322817254478        9.44026527818647
H           38.29549120065842       26.53406123401391       11.15344459262724
C           40.62600398066736       25.78213436862381       10.55563030145746
C           39.81277512010845       24.91058180561998        8.61681458903682
H           39.76445245983476       25.79575938187282        7.95959175637081
C           41.26499061833120       24.47833482632200        8.79185812298838
H           41.29565841360345       23.45810795167632        9.20599145612938
C           41.92614518793720       24.45544868258305        7.42766746729172
H           42.98323256047063       24.19893438243544        7.49427310272474
H           41.83943673215688       25.43128243567802        6.94749373152085
C           41.17663852479604       23.38284699317168        6.62619178047757
H           41.35619609657783       22.41343877711644        7.09592076331288
H           41.57675134803097       23.34341643040928        5.61239828500697
C           39.66427676198091       23.62430757811752        6.56151023237154
H           39.46428606523254       24.52372473394901        5.97518468195477
H           39.19460882766835       22.78212079505904        6.05268872654816
C           39.03172251137564       23.79763865156333        7.94926820984929
H           37.97779669059840       24.05862465563096        7.85030035555998
H           39.10951670977527       22.87560241286203        8.52887431182800
C           34.06913366206810       23.20464063701252       10.30322303930739
H           33.71955240994117       23.84606223723822        9.48656483504890
H           33.33993768486022       23.20050694841420       11.12103947321725
S           45.25222171297796       23.99248968814152        8.66424275828086
S           46.55788177882422       18.90074713496571       11.93604842963288
N           43.62501138252733       24.27176365783070       10.77273436671611
N           44.64678162856245       22.29698739549402       10.63403417447229
N           45.26402001377059       17.87042328647808        9.83009808581232
N           45.21098744122719       20.09351850177032        9.96494825648955
C           44.47273025636477       23.50518956110057       10.04376246176177
C           44.10092062779396       22.37057156827772       11.98118622081216
H           44.90111084676313       22.75295918641972       12.63792721317926
C           43.02366250454152       23.43644666254592       11.80860752655921
H           42.11387119622275       22.97371934565775       11.39453183041866
C           42.68705585673604       24.00314921841509       13.17398158290858
H           41.95361967193791       24.80663690750729       13.10941374401653
H           43.58495569539722       24.39575169543995       13.65349985981844
C           42.10824787806953       22.82879830068847       13.97443536439373
H           41.88238686752687       23.15916413329423       14.98894101774047
H           41.17155816174083       22.52023734409250       13.50527898126644
C           43.04739965107827       21.61891091778673       14.03662425324556
H           43.93288228363986       21.87519356424106       14.62225383266312
H           42.53528271353058       20.80147255297208       14.54488840648446
C           43.50179050010865       21.14954251382764       12.64770935109863
H           42.65537238376220       20.77487185778513       12.06861693337182
H           44.23780546878931       20.35107009439752       12.74466217763061
C           45.71167872513186       21.39596301858622       10.29857880882909
H           46.25027770585042       21.82192570224567        9.44129052231701
H           46.39023787507571       21.28226260508214       11.15484412530887
C           45.63923760912668       18.95130926796094       10.55703991952727
C           44.76622156639326       19.76437522038132        8.61878267802075
H           45.65081067392725       19.81324430205086        7.96081172388147
C           44.33474771863111       18.31193417940694        8.79389625332544
H           43.31471571762498       18.28070227932071        9.20848962694070
C           44.31152166626493       17.65113546019297        7.42953395577195
H           44.05567851347877       16.59387817334251        7.49593215009124
H           45.28704417065873       17.73859048571297        6.94887703213068
C           43.23803993634003       18.40026896476222        6.62885527325869
H           42.26899186972367       18.21999817197441        7.09902484889079
H           43.19834141880357       18.00047077125542        5.61495500672900
C           43.47838338862151       19.91281647964534        6.56448468278263
H           44.37714542948144       20.11372768516875        5.97748183216813
H           42.63539252058811       20.38198310254610        6.05652540011182
C           43.65239358903609       20.54507778207530        7.95228526838874
H           43.91280880640623       21.59915020425989        7.85340244029199
H           42.73081470665509       20.46674526352793        8.53254219693467
C           43.06132011574593       25.50824305752323       10.30145018266833
H           43.70339695908714       25.85752467125458        9.48518065393843
H           43.05677726484770       26.23758023304205       11.11913785627221
F           38.31920156873860       20.68388363772942       10.31070116341222
F           41.11886080284245       19.03617828980719       10.31269621726348
F           40.54288899010309       21.25979521124157       10.30140786116629
F           38.89520046378784       18.46019672698602       10.32199297882836
F           39.72340269586651       19.86944417410119       11.93133184812370
F           39.71465105689055       19.85059239928863        8.69234890590047
