293

O           12.31999171656563       22.53925181494603        6.65000636172108
O            7.74260460310037       23.84509390446241        7.47459384560472
O            5.90667652019201       23.11104699422338       11.75483522196636
O            5.69524218837789       20.78701279694855       15.90498231740838
O            7.81736124895443       17.57509382045961       18.61170630135666
O           12.43078328311049       16.38116953368842       17.79422864306673
O           14.94916225771009       18.22523521040268       14.28104302785452
O           14.79365031814002       20.60561016556738       10.16240092468217
O           10.88730440393431       17.71493649038215        6.55873320736136
O           12.38092721555851       16.72283277155703        8.00566435388638
O           12.42570636062768       14.40254939125437       12.14496021168457
O           10.96848312831023       13.70266176721192       13.78729776339118
O            6.46076548671240       14.94309412485230       14.55284894747619
O            5.13759371279700       16.42271730766063       13.38816801863458
O            5.14351809980850       18.78166749451544        9.26590795760488
O            6.39536153058822       19.00014844374170        7.34455220859230
C           11.04914965501431       22.85799026545890        6.22894787079710
C            9.97184939200183       22.95930707529532        7.10431165532438
H           10.07511230775965       22.66620546307870        8.13971463445404
C            8.78032676737100       23.50753391687378        6.63782140636594
C            8.64500697854773       23.87505331966810        5.30332074081658
C            9.70815875263767       23.72641145483988        4.42321636461220
C            9.54762661229725       24.07710366121049        2.96509251599096
C           10.91358201103119       23.22427965701850        4.89437194345044
C            7.23782881803371       22.95161944960450        8.38281116167313
C            6.82398456974834       23.44948484049132        9.61077933711774
C            6.24007157486710       22.58810082212239       10.53262925446344
C            6.06704209565388       21.24800617025213       10.21778748205151
H            5.65883245780097       20.56171041441960       10.94048684774491
C            6.45981658183648       20.77158195154494        8.97959895800533
C            7.05205450137342       21.61334198595375        8.05619981705493
H            7.35652336778047       21.24301384120238        7.09037319211786
C            5.19041236381406       22.31313779622295       12.62664368676643
C            5.77777885844429       21.96294914842113       13.83464808360781
H            6.77668231074755       22.29369420411370       14.07053800440418
C            5.08245824068415       21.14711465801113       14.71602438015243
C            3.80286126246301       20.70326909661541       14.40823068126323
C            3.21043770743216       21.06900461889699       13.20455642219845
C            1.84392196577077       20.54308974957757       12.84112451937963
C            3.91140517126044       21.87011341252638       12.31104116864712
C            6.11144845992672       19.49047926607408       16.04250313783614
C            6.76088391081377       19.16092263538535       17.22679581100963
C            7.25507998784977       17.87538216036618       17.39828442107804
C            7.09343506237338       16.91266224477996       16.40925970975712
H            7.46728878816310       15.91214641990625       16.55984989663700
C            6.43033785572025       17.25058733552363       15.24289418498561
C            5.94585012083236       18.53213066365475       15.05225104039995
C            8.89904342466068       16.73642790250097       18.72984816440704
C           10.05957773695449       16.88558345430702       17.97488357898377
H           10.10455305321524       17.60491136062507       17.16926331087339
C           11.18289337478402       16.14016828112610       18.32199853001903
C           11.12443705790755       15.21018810709596       19.35432437460089
C            9.95221923836108       15.03488450515169       20.07668740716051
C            9.87774349475526       13.99943286965012       21.17057172443038
C            8.84300947041563       15.80819843667109       19.76459582208859
C           12.66280370382367       16.42891906622775       16.44666325252576
C           13.66209676931088       17.28825648837736       16.01014021348958
C           13.99674652894918       17.31804467408017       14.66172050718820
C           13.34460268100719       16.48210970708066       13.76644258386198
H           13.57394140932275       16.51073150682208       12.71481340670883
C           12.35825925615031       15.62300850368836       14.21617602500570
C           12.00355478138314       15.59301449248509       15.55333836148430
H           11.23965156996808       14.91679951105491       15.90365862096137
C           15.28656882504645       18.29333435040038       12.94061917185793
C           14.89519104864139       19.41185883271948       12.21820054531773
H           14.32638802530015       20.19495603182344       12.69350288317909
C           15.20812329574765       19.49226792011999       10.86833312818620
C           15.92668600182614       18.47595345751382       10.25030645602588
C           16.33448436986708       17.36619877908324       10.98110990543316
C           17.07226904952381       16.24012454809934       10.30029416593837
C           16.00526002797983       17.27395030695265       12.32885903162919
C           13.86666290402737       20.43062008528205        9.16806380090990
C           13.53998693801368       21.54609497239842        8.40543398827211
C           12.56062763712751       21.43843523193932        7.42769116628921
C           11.92065203328996       20.22742622707606        7.18976043515212
H           11.17708594110697       20.14903585049935        6.41282807162600
C           12.26439154983385       19.12401809835617        7.94891221340210
C           13.22275069618699       19.22268494919921        8.94246224536456
H           13.44074950800583       18.36090142952037        9.55115694271164
C           11.51833673173354       17.81758832538580        7.80873514105218
H           10.75366930504543       17.82157975854511        8.60906852915251
C           11.83906625773424       15.68704032429929        8.76807022496858
C           12.31986958152028       15.53050216734480       10.05800948621689
H           13.06394465615659       16.21499123943663       10.43687027817784
C           11.86183095251285       14.50593840866086       10.87032355515983
C           10.88460150112583       13.62615157829361       10.40316339143319
C           10.39249899597487       13.82882886387734        9.12244757625573
H            9.61666638403742       13.17743410100920        8.76651626492254
C           10.85916873036563       14.82313932001627        8.27664739613778
C           11.59006701492131       14.81607753934828       13.19387169998015
H           10.81379942016021       15.49718089362886       12.79133023321282
C            9.63603331706040       13.59280169372951       13.38983781693848
C            8.67746373689709       14.17330551621546       14.19771399722202
H            8.96681020655336       14.64850488521449       15.12293486345751
C            7.36253825532362       14.21842476223341       13.77674890583087
C            6.98188758050203       13.67345684570151       12.55196831879825
C            7.96339981983208       13.08861393581861       11.76693501149339
H            7.69374349419634       12.71028179427577       10.79790594610663
C            9.29256718523641       13.03652944219906       12.16029558610671
C            6.33801989624144       16.26974334368551       14.09589714228153
C            5.26848427020834       16.35249721100726       11.99690198322292
C            5.18289064976595       17.54108993723137       11.29104960934954
H            5.05165101473947       18.46921644488572       11.82509924652402
C            5.27168782764522       17.54944240323775        9.90856166110937
C            5.47209885733584       16.35684895622679        9.21073212137190
C            5.60380844210659       15.18574888508166        9.94365982965123
H            5.81646147569227       14.26914746614763        9.42363235750609
C            5.47624556494923       15.14620912688639       11.32485994795982
C            6.33569584136407       19.28844327428794        8.71968132513150
H            7.19683816727870       18.82025965392790        9.23289636040112
C            7.29300105001384       17.96634523718845        7.08220881780985
C            8.59793780538529       18.30723427804324        6.78444275537104
H            8.88534422087790       19.34482012721383        6.71705921070742
C            9.55623528468115       17.31646963547199        6.69138301647982
C            9.22191998972879       15.97386428066981        6.86083658943814
C            7.89547898243950       15.65659186856006        7.12380849433461
H            7.62865811703530       14.62877446055608        7.29676862865471
C            6.91834769689386       16.63419545160992        7.25334204639036
C           10.34789609799031       14.96073410834208        6.85543461391238
H           11.16608930509056       15.40595293445704        6.27578802787995
C           10.39412583601063       12.48908922562936       11.27825875716224
H           11.22562982614530       12.21539991400466       11.93988575680299
C            5.54519826469984       13.84986833915736       12.10707257787196
H            4.96913195644965       14.00276958752356       13.02686915213259
C            5.49749440499972       16.35857778611822        7.69465973798847
H            4.90539107744786       17.22811843153823        7.38371731714516
C            9.98030060701467       13.61375033619406        6.22639242760529
H           10.83062027634661       12.94692271931734        6.36679645785715
H            9.11116626360311       13.19330806090299        6.72299131738042
C            9.68020919647039       13.77078891415142        4.73398469248086
H           10.52836789898086       14.26005881946469        4.25668097599339
H            8.81440133715893       14.42179866845632        4.63057247643726
C            9.43873055102257       12.38637289039091        4.12866672607650
N            8.90384046838013       12.37473428288485        2.74030940401684
C            4.85906270831442       15.10231648935129        7.09366540979618
H            5.51494676783356       14.24473484807477        7.20368584878014
H            3.93888111061826       14.91613189967778        7.64579205920217
C            4.52330602450427       15.31384814533527        5.61490748693335
H            5.45024456415516       15.44751285000808        5.06093628861899
H            3.94420941084853       16.23153248283157        5.52822575610387
C            3.72182773938418       14.11266470930744        5.10898353358418
N            3.13186062908126       14.24683738859886        3.74939346348955
C            9.94759776517638       11.24575683974408       10.49740453815722
H            9.12547783142623       11.51406026062825        9.84208707569677
H            9.58813680584043       10.53489689093619       11.24122969100088
C           11.09977940404851       10.65642068246837        9.67532912801295
H           11.71882985270295       10.01506781378283       10.30018884802391
H           11.74012497791794       11.48229377809127        9.35985859996079
C           10.68909747523871        9.94834368175788        8.38215568718867
N            9.96425926353270        8.64584014399392        8.48487973808431
C            4.99224211091064       12.61805012989718       11.37370453729366
H            4.92420295332774       11.81752963032569       12.11103109807573
H            5.69020167634958       12.29624039934127       10.60730555424079
C            3.63007818949753       12.83242736406426       10.70612696300886
H            3.75752991435440       13.53013633184673        9.88357163407304
H            3.31082617871410       11.86494929042603       10.32235776964822
C            2.60217005009998       13.38769673245793       11.68796915682761
N            1.22558788583224       13.52510160087228       11.13417985499576
H           14.16768649016872       17.93411349297336       16.70893587185533
H           14.03503398293723       22.48693244254367        8.58131923298031
H            6.96637647013234       24.48968324329501        9.85378401875396
H           16.13309102015991       18.55816911770009        9.19440877590843
H           16.27303388932832       16.40824072403353       12.91456909067849
H           12.01659823172546       14.64640311033464       19.57239208982279
H            7.91823746962664       15.72173652902123       20.31125124270190
H            3.30180064010655       20.05329040370662       15.10860724017268
H            3.49510329526157       22.13966567089845       11.35272456544491
H            7.69759786814362       24.28017043561696        4.98746732509808
H           11.77255373153760       23.11138064387817        4.25343253590159
N           18.55867845233438       16.36975291947937       10.32003575591993
N           10.26420701349103       14.49663111388822       22.52375737669340
N            0.70905941644111       21.41906055015297       13.25565404982154
N            9.89221834694015       25.48837231951703        2.62337009008302
H            7.18826210170367       16.50626154976744       13.42487486560961
H            6.89046696368320       19.90132792911059       17.99897072759641
H            5.47445335368067       18.77934370618738       14.11670879612415
C           19.12798505088239       15.20704468578154        9.61615482708645
C           19.05724464969118       16.38685519222416       11.70381644692391
H           18.65764645095797       17.24446577846218       12.23951662664089
H           20.14257201759148       16.45329777368151       11.70524335269473
H           18.76536865863442       15.47570207688915       12.22013895397686
H           18.78398295098791       15.18455784237846        8.58528442291872
H           18.83371882369515       14.28486557612660       10.11079796882926
H           20.21346163881399       15.26866399308150        9.61769596118117
C           18.97914420456610       17.60096837356703        9.63365723523783
H           18.62332566046933       17.59867253508982        8.60645687226633
H           20.06449303743012       17.66675442888898        9.62462540521573
H           18.58419487737715       18.47404414648026       10.14723882154527
H           16.75592217563139       16.19275982507212        9.25720504430659
H           16.81288569980953       15.30159685634309       10.79248684607254
C            9.69990481470409       25.66770475028613        1.17375442397422
C            9.01458222246114       26.42190123780934        3.34560918869475
H            7.97480953173208       26.23210748603660        3.09153549242484
H            9.25557334005919       27.44585619275523        3.06949237848243
H            9.14874667785682       26.31098487343590        4.41847584140124
H           10.35079694510808       24.99648938786567        0.61902345709265
H            9.93809157030114       26.69021890151993        0.89084376744902
H            8.66702323819121       25.46613293704727        0.90073127774308
H           10.19220683267259       23.42623658468267        2.37292874454031
H            8.51012046039576       23.91009734921780        2.67301164887053
C           11.29449459164533       25.77473936900723        2.96247029601517
H           11.95625769795769       25.09619892977986        2.42994537532256
H           11.45391209080126       25.66482897765307        4.03214617101152
H           11.54376072580381       26.79402509973322        2.67694250270505
C           -0.54497982393916       20.77010612770882       12.83350272749190
C            0.69621277741355       21.58926887416749       14.71666743610643
H            1.61102836299488       22.07322369397325       15.05008858306587
H            0.60430595533871       20.62394786063440       15.20814063041377
H           -0.14760134503805       22.20900362634474       15.01048610646140
H           -0.55923550461672       20.64560580871543       11.75390118603008
H           -1.39465463748371       21.38452880279686       13.12108745757686
H           -0.64570405493015       19.79906006387763       13.31112931679014
H            1.70518432741382       19.57315052161562       13.32015419034050
H            1.79242803820605       20.42199073122065       11.75815449809746
C            0.81052086116393       22.73677770366021       12.61025355275068
H            0.81372779645512       22.62688866402227       11.52876928409415
H            1.72171552847372       23.24191113028808       12.92118171231168
H           -0.03856158738319       23.35437955332707       12.89345659587156
C            9.37712876379917       15.59256607416571       22.94270885139064
C           10.13474435865369       13.37985314754877       23.47571120427571
H            8.34438795627235       15.25343342302373       22.96005588324722
H            9.46746218049081       16.43219754131106       22.25836593640505
H            9.64820602586194       15.92622476188367       23.94159869844041
H           10.78594927320404       12.55833104741475       23.18753905502039
H            9.10816599580137       13.02305474828683       23.50427916877840
H           10.41427313864845       13.70825388956671       24.47384685363670
H           10.54146302476939       13.17117198372226       20.91889445865219
H            8.85529360270050       13.62522816893560       21.23445778876416
C           11.65688037503629       14.96987910627001       22.52281135008245
H           11.77055054363773       15.80450190305524       21.83577691934882
H           12.32657886298587       14.16671573469431       22.22497255956765
H           11.93605140857590       15.29934664909484       23.52088524812106
H           10.38392213909320       11.84234627585255        4.12798707268447
H            8.72549385027016       11.84546869083242        4.75139783015590
C            9.73091814126313       13.19929930943115        1.84617990938366
C            7.51641749349467       12.86677324116721        2.72601165523293
H           10.77232578889882       12.89054493562085        1.90095602906560
H            9.65946175264041       14.24872048780809        2.11730793417730
H            9.39730390909183       13.08539442254331        0.81706222551055
H            6.90802239775196       12.22804865180641        3.36089166740373
H            7.13133430871732       12.83628872232213        1.70922426670973
H            7.48321182302295       13.89271363747472        3.08070837490619
C            8.91410009235485       10.98125565430094        2.25736943956013
H            9.93137675406224       10.59989598478267        2.21231464433417
H            8.49208582226161       10.92614561046763        1.25651083067237
H            8.32742887707498       10.34706744144502        2.91685438924478
C            0.61145018463548       12.20451054020610       10.91858911447168
C            1.24582902400226       14.26686873327564        9.86133708635641
C            9.96837766155410        8.03585538248192        7.14100412306598
C            8.56172021481712        8.83199307887536        8.89447550928871
H           11.60654653131416        9.75572105920466        7.82510569523939
H           10.06379801127914       10.62355697959194        7.79812071666489
H           10.98446210736849        7.81522616576698        6.82295933718301
H            9.50980988761916        8.71231418916721        6.42559627812293
H            9.41060017805449        7.10245884921532        7.15131372040245
H            8.50771569798496        9.22368610145170        9.90359712841450
H            8.04720170016626        7.87381740742331        8.87607460489463
H            8.06371373405650        9.50892122067899        8.20735524581595
C           10.63207223296482        7.73561460130540        9.42563206881569
H           11.68586921333357        7.63482600025192        9.17538625145118
H           10.17420622677186        6.74987836092690        9.38008631281789
H           10.54459291577030        8.10367420873235       10.44397781402100
H            0.55871632114990       11.65386176297348       11.85482117881872
H            1.18816672019888       11.62607701799104       10.20357466566881
H           -0.39952009475524       12.32274653601352       10.53565605998167
H            1.83004130673691       15.17736545611851        9.97359239463261
H            0.22964306338361       14.53058339358311        9.57775790394573
H            1.67294098266717       13.64523566886296        9.08121184158966
C            0.41573129227781       14.27428793185440       12.10968183036150
H            0.41878872245693       13.77001424680296       13.07360263202329
H           -0.61386428151055       14.34882901602501       11.76683206574254
H            0.82007952102269       15.27520796037450       12.23896104522409
H            2.92581263752380       14.37909436879830       12.00896856144981
H            2.54868167941535       12.74573853417042       12.56878604362055
C            2.41243541492172       12.99551458434477        3.44574833149501
C            4.18443093618509       14.44660444099434        2.74194857708654
H            4.72386165586898       15.36846033090685        2.93738160375402
H            3.74180834411576       14.51537765315092        1.75085606004003
H            4.86830088005907       13.60394217938468        2.75910921245617
H            1.59974271679352       12.84361855402240        4.15156616034160
H            3.08814036072776       12.14592947455025        3.49555050014100
H            1.98681308051949       13.03813122867527        2.44586864331322
C            2.17704760667494       15.36519978780420        3.69395155944545
H            1.43413646260574       15.26897666732191        4.48176151060745
H            1.66119557737920       15.36785901227747        2.73622119499182
H            2.69004792703741       16.31658504949703        3.80046766851801
H            4.36279164163541       13.23123427860488        5.10450490643400
H            2.89615691090057       13.93355532924055        5.79854575990494
O           10.72820190876237       17.72458068910186       12.10372809931581
Re           9.19584515720398       17.79295209649305       11.39069099681831
O            9.24318489584778       18.59671201947327        9.89552066190359
O            8.02853089943558       18.50226473694208       12.39071202275341
O            8.68731221445008       16.20749429933218       11.05589986954417
