66

C           -0.47533737559715       -0.02886365968215       -0.02010024627411
C           -0.95914607093416        0.76822877285402        1.17041092341190
C           -0.93930200933419       -1.46231973333694        0.07122172748859
C           -0.83843986551759        0.60308366123330       -1.34368806976845
N           -4.01888252305627        1.14249683412445        3.22195240637108
N           -3.78511878449059       -3.59485126459116       -0.94631461802433
N           -2.54524567022268        3.56371107384040       -2.76200104203417
O           -4.70359860168165        0.27758902715335        2.69590501030835
O           -4.41549550514744       -2.77347810665413       -1.59503299979889
O           -3.01499473651066        4.02080437449598       -1.73147956486190
C           -0.10141309211698        1.70770954233890        1.79294481963961
C           -0.13967318041125       -2.39973797285062        0.76530110058027
C           -0.32082623288941        0.01789074077402       -2.52020121562774
N            3.67028133343069        1.88617740016622        0.31778734781663
N            3.62393166565853       -1.27628807835218        1.05852156289178
O           -4.41183775222993        1.83578899729330        4.14781586639532
O           -4.15437319990630       -4.74913078651864       -0.78979746717402
O           -2.69648352963000        4.08534391940323       -3.85560132956683
C           -0.58819382050947        2.46242334180459        2.86979584095150
C           -0.59857817331919       -3.71276227049726        0.91775776694363
C           -0.52420936339987        0.63934587022643       -3.75440763980873
O            1.14345580121634        1.82204012297608        1.30350499102485
O            1.03546841653787       -1.94613416437193        1.23326087580366
O            0.29300746608327       -1.18422223673527       -2.40179529394639
C           -1.87000977967052        2.28825898100239        3.34046961887820
C           -1.79879892821170       -4.10697109461945        0.36818680360600
C           -1.25499139555375        1.80316289705568       -3.84409001985892
O            4.37534145734010        3.14418659243044        2.06377963772891
O            4.16968895569092       -2.74874513926053        2.69225791456052
O            2.31310113113651       -0.06149121880376       -1.23513038413899
C           -2.69917409365004        1.34679485227406        2.73869328891989
C           -2.56084755332865       -3.19097315538794       -0.35043140456862
C           -1.78381423600720        2.36400933410728       -2.68549078930098
C           -2.23774712075753        0.60036777595647        1.65500306934357
C           -2.13009399973620       -1.87056759875698       -0.48592589026150
C           -1.56660887337698        1.76875780934562       -1.44295021162263
C            2.04747004806830        2.70022391327479        1.94816193681921
C            1.94342333883830       -2.84278990649454        1.84053791097631
C            1.53115097000445       -1.39781820356393       -3.05049360834757
C            3.49531126296971        2.57327596915709        1.43686766027715
C            3.36956361280223       -2.25999932717345        1.91096918097426
H            0.62023984238963       -0.03782680323900        0.00708300299907
H            2.92144327187820        1.35976794632383       -0.11315822979805
H            2.92583293386492       -0.92534517650278        0.41709599980668
H            0.03644819955099        3.19936920126420        3.34583844293228
H           -0.02259634959384       -4.43291742939934        1.47527221343732
H           -0.13164792919369        0.19523733994752       -4.65584538191499
H           -2.24064257222306        2.86968019784959        4.17036628337368
H           -2.15583170580325       -5.11887486834519        0.48249148055517
H           -1.43274666241943        2.28112059827441       -4.79497108332873
H           -2.90803114516765       -0.11246001299660        1.20001377927193
H           -2.74402961494243       -1.17908654555844       -1.04358199335759
H           -1.96881707490189        2.24955904919678       -0.56457897578134
H            2.09137112197849        2.49899054211316        3.02505201864705
H            1.74391283383012        3.74489034046176        1.79830500848639
H            2.03175679057861       -3.77110571249852        1.26148746650982
H            1.62625042391829       -3.09270317675719        2.85998987848557
H            1.55584777807309       -1.00553985963115       -4.07155826816463
H            1.67470170168365       -2.48062909616501       -3.07068903455115
H            4.56202612286901       -0.91419974380916        0.93912791358467
H            4.60742946460477        1.64245063166254        0.01478401405567
C            2.63769208454744       -0.73647670957570       -2.20491860201233
N            3.88795295561761       -0.94998345633318       -2.57476933195236
H            4.12122979403696       -1.53436476924049       -3.35902243093780
H            4.65292226907571       -0.58146343500950       -1.99302431860882
Cl           6.16507652741780        0.02532758784301       -0.67424398632416
