322

O            4.44588462445186       14.86767001552792       23.34827983834413
O           -1.20541410301629       16.06021547698043       21.85150848882544
O            0.38459178895182       12.12011365418819       25.82538954473447
O            5.62861434501719       12.00731040563074       28.78450670475322
O            2.84728807093965        7.24312945070346       26.38059137065778
O           -2.80596673438177        7.32258301380443       24.21840910119855
O            1.96797402758338        5.38612370192631       21.26474533810093
O            7.61866735737012        4.93395159978423       23.35877540004360
O            5.80736961851784        8.27214779819103       18.57134142891010
O            0.05403384920646        8.54070707027597       16.61415288194203
O            3.24163439767656       13.23830326257695       18.38107276498965
O            9.17456138049340       13.04222053067667       19.61846670634275
N            3.05043404956734       14.68066985942650       21.53666602110419
N            2.29449918301166       14.09943494870801       23.54197033415794
N           -0.01080796263748       14.38548223017785       22.88147511976094
N            0.78615354804343       15.29378421326272       21.01104562242940
N            2.56379250975974       12.80879406324901       25.60505845802505
N            2.15191163518013       10.76928998394766       26.37041131908326
N            4.27727346616503       10.68491552598687       27.48703747031884
N            4.62740403458795       12.79124360610400       26.86629529665318
N            1.14750422210299        8.64686381684100       25.73699837827848
N            1.61691380918985        6.88305826483129       24.47814987258937
N           -0.63463140910467        6.94141239615158       23.57302681084507
N           -1.08677767087346        8.71886817543805       24.82134405350278
N            3.32486064548549        6.00875977447913       23.00214376450711
N            4.09847887720925        6.16529536302779       20.92735180951009
N            6.35774469606120        6.02110848781797       21.77509987435875
N            5.58550223114995        5.88460047850743       23.84869613355269
N            3.65687401885376        7.63229125796223       19.04472340182722
N            4.02826256548342        9.71561792730816       18.38635138074981
N            1.77540969721106        9.77584834008686       17.50603461856460
N            1.36087116401911        7.74821937160273       18.32518996476953
N            5.01275328695680       11.88221274678115       18.93749577680228
N            4.74303103471948       13.79763079435193       20.02305878319666
N            7.13141519658521       13.76189830674493       20.37645287210832
N            7.32227699188122       11.68125359060513       19.60961429710927
C            3.37620922199659       14.54735428836473       22.85348577592952
C            1.21700517017138       13.68706058507560       22.64904178753680
H            1.09632685860205       12.59720790351339       22.69687694277405
C           -0.24134603201689       15.31809700685140       21.89997462360245
C            1.70690760778964       14.21724348374722       21.27647503769819
H            1.71737181542981       13.46174627310693       20.48055617439747
C            2.26870991036128       14.07259521446580       24.98455195478139
H            1.26664838741179       14.35689386724519       25.31528645150391
H            3.01302399447992       14.80099378235160       25.31478855430421
C            1.58290418545974       11.90760666219713       25.89380894240170
C            3.59408797043724       10.78417652174952       26.23324964310786
H            3.92799199650841       10.01099902312895       25.52383958771317
C            4.92181404250047       11.84064539151892       27.80709109794497
C            3.88583380054179       12.23382619330607       25.76451773208119
H            4.44557340236751       12.28825303986198       24.82185474749305
C            1.35996317791458        9.63445509523170       26.76312190657026
H            0.39329573226046       10.03367389488868       27.07674475332856
H            1.86070253746024        9.11720885784588       27.58397858947494
C            1.97474840885502        7.57522699630127       25.59590991351010
C            0.63493818708713        7.59857497407115       23.68843430359996
H            1.05044359782076        7.85360747865159       22.70029410146995
C           -1.62504327468304        7.62213536115777       24.21827922699886
C            0.31727399704596        8.84062035175986       24.56378296407592
H            0.56997165431423        9.79534445975900       24.08236008740051
C            2.37175282357291        5.73787209898050       24.04463433503433
H            1.69762753389602        4.96921553357678       23.66283543379476
H            2.89243446753998        5.36644580836886       24.92876522355189
C            3.01988009899402        5.83534046368618       21.69102162599807
C            5.14009903728813        6.77670114597911       21.72729472063423
H            5.30712707269363        7.81154507218045       21.39867073324235
C            6.61630302178472        5.54027260728220       23.02474854437606
C            4.59953250349725        6.67574193315012       23.17573756687313
H            4.46304876807249        7.65091192259036       23.66605510729563
C            3.98260530970602        6.30603864129517       19.49707056703790
H            4.93572564664019        6.05039475132771       19.03008775232602
H            3.19300321613313        5.61820981559876       19.18600999877674
C            4.62058412076328        8.52608706339143       18.68275764206729
C            2.60966861577610        9.70167119981317       18.67518304072200
H            2.36309464619193       10.49264833267337       19.39860290064939
C            0.96843916751642        8.67517776967534       17.40504315112202
C            2.36541368235516        8.26670558886251       19.20432450234289
H            2.05010951152807        8.23767028535215       20.25841806373203
C            4.77287382666808       10.86628304526908       17.94622336750837
H            4.21796563623069       11.36115111118224       17.14498891576265
H            5.73604135186429       10.49028833194109       17.59059899664699
C            4.21464174741333       12.97859254257370       19.06638167212468
C            5.85382702814921       13.17211687879953       20.69882714852600
H            5.68290609393025       13.13257915842815       21.78349670739322
C            7.99421460131242       12.85198933293613       19.85334607410471
C            5.95693991970517       11.77662679159857       20.03560831860243
H            5.68660454036287       10.93749936897885       20.69214813351702
C            4.03344733921864       14.95116230934484       20.51502773073528
H            3.52556437190731       15.38831161035216       19.65352401795356
H            4.75781112476709       15.64222128609506       20.94914415770137
O           -0.87483956145110       10.02599989512528       19.36213439005193
O            0.29348345050373        9.73377575316660       21.20860709819608
C           -1.11642296777211       13.86073891739574       23.66102740470903
H           -1.89510906989103       14.62309560986737       23.58732155071744
H           -0.80790320888046       13.74135952042266       24.70024949021860
C           -1.63304385328364       12.51414603728604       23.15027153930738
H           -0.87637635303681       11.75089259916982       23.34929665585761
H           -2.51971677255414       12.26651183407780       23.73347977905863
C           -1.98081000829773       12.53263762367177       21.66268811864800
H           -2.54139835153357       13.44420314758863       21.44440412159065
H           -1.05430069509826       12.56232640434627       21.07750691416867
C           -2.81665711067872       11.32413756363978       21.23728054531040
H           -3.09406968489350       11.44564309507746       20.18945202788043
H           -3.73259100814174       11.29905881737900       21.82698162001744
C           -2.08989284404418        9.98469834605387       21.44281244606112
H           -1.87114270797552        9.82421609760688       22.49730850264046
H           -2.73164054594017        9.16823178616504       21.10328811609323
C           -0.79183868963550        9.90808148166316       20.68325510829892
O           -1.11758807115133       14.30547052694043       13.86707171468250
O           -3.07453047785237       15.01844832860254       14.56330726692998
C            0.84647207753418       16.19405784381301       19.87711396841987
H            1.81973189703652       16.68812516041554       19.87065401017702
H            0.07245154539323       16.94098017847504       20.07157972228651
C            0.57992284016915       15.50932328094459       18.53709220479723
H            0.78670296389349       16.23102081322979       17.74742348925333
H            1.26787931157046       14.67161342130927       18.40128633856205
C           -0.86481732974488       15.02406179724090       18.44428899599020
H           -1.53286141764387       15.85705074849998       18.67108742058001
H           -1.02716274820279       14.25961481303098       19.20789207542512
C           -1.21947510210232       14.43458910961439       17.08067727278072
H           -0.53243804091338       13.61907145973793       16.84966752570590
H           -2.22833581002903       14.01948218841964       17.13219201511382
C           -1.15574013631664       15.48327761559461       15.95733902309636
H           -1.69780066476342       16.37814954156065       16.26223827798063
H           -0.11708512783268       15.74174119142646       15.75215354330127
C           -1.75703990201375       14.89723028970418       14.70709426523377
C            4.53863088632377        9.43810780727440       28.18160171029615
C            3.86453403027721        9.38062715273649       29.55319157800358
C            3.94084109989024        7.96488078191448       30.11868580854739
C            3.28244108260421        7.85829468413313       31.49206485365990
O           10.68465970009319       14.80726320228172       26.25178794509454
O           11.78523694247844       13.16536192482551       27.21171905475757
C            5.36821996103793       14.03574526166494       26.82169194907473
H            5.77323096132175       14.16639619408092       27.82812048445454
H            4.67842541974617       14.85605060383792       26.61561625829750
C            6.50698165778941       14.05695165135658       25.80374027469662
H            6.88971851786579       15.07799844669488       25.78150588111142
H            6.11656610453130       13.82080790743945       24.81075877636518
C            7.64489845088068       13.10828984485008       26.16577881974582
H            7.24985436385475       12.09474321038211       26.28303625664607
H            8.05872695609515       13.42252055988717       27.12605521439776
C            8.74160581519332       13.12670779959179       25.09932937599337
H            8.39934902991629       12.57197200431582       24.22252516666713
H            8.91526923425670       14.16133654850414       24.79688913629879
C           10.06494469051805       12.56581660711834       25.62200842508835
H            9.88439898313116       11.70558538932458       26.26620948543304
H           10.69773672872814       12.26111639546489       24.78391911252531
C           10.84660313562988       13.61876768174800       26.38516857406209
O            1.53052161603309        2.46480415382121       24.16466091183310
C           -0.93181046340892        5.75959852571189       22.78302883283028
H           -0.11377100073404        5.61466098762723       22.07844695093467
H           -1.85697809965824        5.96425902678221       22.23509804528801
C           -1.14774923290723        4.54197009070726       23.68610885771380
H           -1.82948054654620        4.84957400533041       24.48212762935713
H           -0.20698966280318        4.25696685307863       24.15731993187051
C           -1.76895847082692        3.34020838501577       22.97339175340333
H           -1.87221945258106        2.54846991187220       23.71824604443409
H           -2.77181682333271        3.61512556305881       22.64277260349595
C           -0.99978124508802        2.80733869022077       21.76036934177610
H           -1.07148300138483        3.52596342203581       20.94436403641435
H           -1.49419789211974        1.89010838741813       21.43842100080321
C            0.49834147235917        2.54805683069280       22.00295518753351
H            0.87917816050421        1.87593964158588       21.23102428518869
H            1.05605908371875        3.48072892424102       21.92615413621316
C            0.80881476275073        1.93636036630819       23.34586791047014
C           -1.89632054570998        9.69539556408741       25.52357669115577
C           -2.31401616697954        9.20814057111553       26.91298974612787
C           -2.98523316412977       10.32997999270864       27.70058511301972
C           -3.37016769242681        9.87894298576242       29.10721486744799
C           -4.05490748917406       10.99873492431628       29.88738492357445
O            4.32221502759639       -0.04763357435267       28.44879422498145
O            3.87012633768364        0.60151733185956       30.49977382541285
C            5.05695498245640        3.97575656512013       27.09527275267664
C            4.20878335213213        0.86197029881530       29.23648474559468
O            7.49360248068969        0.38026122374940       16.98515014534478
C            7.22395482387803        5.76490723435650       20.64111846244334
C            7.63440167045061        2.75069246683733       18.22953586820614
C            8.28659787366769        1.19942723231718       16.31947302063275
C            0.57251324344713        6.55985607531188       18.58993825310570
H           -0.48411201758453        6.84515417207331       18.58357864206520
H            0.83857988808047        6.20182080119247       19.58532175960643
C            0.80658635801333        5.47064880511343       17.54162679396677
C            0.14199038376267        4.16348455436259       17.96474401117946
C            0.36600644864398        3.05759274183516       16.93673093256751
O            4.09318501227518       15.50231750326618       14.64627265434037
O            2.05733154509324       16.09654518552547       15.21548237827097
C            1.37363036342841       11.03417714062446       16.90618565420015
H            1.71256575228001       11.83530929321936       17.56654507937415
H            0.28096291582020       11.04633626391835       16.85795747354494
C            1.94415622089818       11.23664224626208       15.50123121362065
H            3.00382950599738       10.97535860225697       15.50030402079103
H            1.43376365994907       10.56814419517828       14.80756891552217
C            1.76839139616074       12.69385853535480       15.08085509076300
H            0.70812896339707       12.90797952771516       14.93868182585467
H            2.13357578193293       13.33203272960573       15.89096807347056
C            2.50913896467837       13.04131347534089       13.79274213480791
H            2.14264903493569       12.41122297918652       12.98276196531555
H            3.57481423898650       12.84492067616903       13.92359838034341
C            2.26276945893692       14.51059819705269       13.41869181198674
H            2.75979291887519       14.74628669816771       12.47708694359567
H            1.18952392098612       14.66998821222400       13.30706937604710
C            2.77180769082418       15.43380874069170       14.49723966957846
O            7.24649956447845        9.26905230698906       26.44289610901325
O            6.15665979472786        9.10704510675577       24.53771803747292
C            8.04812454932499       10.40463912668855       19.54409239482281
C            8.54048147871864        8.79710217131109       22.96573932311086
C            8.58207307555804        9.09777764127355       24.46117737554892
C            7.22362283932922        9.15638409242843       25.11449378972277
O            6.53511834691913       17.40613717780601       26.36370275641681
O            4.70137956377265       18.46640113465215       25.77945473630579
C            7.51299148381514       15.13738850730646       20.61876012715217
C            7.51805837277081       15.51163061564439       22.09973832385296
C            7.86902248322581       16.98775044269429       22.28928323344079
C            6.13324922296513       17.66660522379084       24.00780370510654
C            5.83869400043935       17.83654650007252       25.47384494912709
C            3.33803744842259        6.42317299020421       32.00635579375632
C            2.72071699370336        6.21827476862270       33.36337345435568
O           -4.16680872041117        9.48994731068498       31.76000754195875
C           -4.40858453909288       10.57797451137550       31.29238225816250
C            5.61620716064132        5.63498692924868       25.27565622678275
C            5.31151041707898        4.17039062730508       25.60339664617259
C            4.71383337459735        2.52215658716552       27.41172106916591
C            4.44126917666038        2.31448597896622       28.89972510065106
C            7.03677743404500        4.35000418786538       20.08898827439662
C            8.44128226292535        2.55718846332677       16.94932581297699
O            8.83965303839559        0.87079429459013       15.28841535534552
C            7.83156664811585        4.15307830289791       18.80062520883595
O            0.59842953652984        0.75432245329603       15.36567144221859
O           -0.72367803033218       -0.49714390757961       16.60093481846283
C           -0.33696956593788        1.76410967214390       17.34160181537138
C           -0.10285745596343        0.65503635036167       16.34480261290054
C            7.80626598111529        9.54600117344371       20.71831205020353
C            8.02943452955466        9.97227553096069       22.11754705570402
C            7.62261186545554       17.47035154219195       23.71891758930902
H            5.61997292997099        9.34108089341926       28.30557203530022
H            4.18868438549908        8.62699868396288       27.54123448517477
H            2.83018052884073        5.75009838214019       31.31276502093801
H            4.37492743233012        6.08595372578115       32.07501198203634
H            2.24262811147065        8.18130465732740       31.42671700238282
H            3.79073284834557        8.52117308593525       32.19241283596291
H            2.82171064467440        9.68947450022733       29.46359704549996
H            4.36385331502790       10.08859248554506       30.21566765423964
H            4.98809085705321        7.66938192024851       30.19168484586231
H            3.45211378949798        7.28349044480687       29.41821227005690
O            2.57267775130631        5.12354457961039       33.87036640249006
O            2.35942953971890        7.33285080419605       33.96938517367367
H            1.96942055972975        7.17238184287711       34.85081332656917
H           -2.79573046153665        9.87082912187427       24.92554394669240
H           -1.31954436205017       10.61960138018738       25.58710802143024
O           -5.02788874770729       11.49513833465694       32.03660091051550
H           -5.17755036917732       12.34214048228768       31.57800865835137
H           -3.39259443098177       11.86588836820201       29.94329719782182
H           -4.96994593113086       11.30124222815009       29.37362534336712
H            1.87891180949512        5.31655926227178       17.41172215419212
H           -0.92817462193156        4.33587215066287       18.08858946331314
H           -0.00643912288692        3.37871840218076       15.96292609858499
H            0.03340970148084        1.43446319174159       18.31494990177146
H           -1.41155443271464        1.93856116783597       17.42475752366767
H            1.43386243482397        2.86549530260128       16.82294108126966
H            0.55241006435812        3.86210575099045       18.93077159157632
H            0.40342539439010        5.81526177679830       16.58849624839651
H            9.50684991453476        2.70358728893808       17.13985339115544
H            8.15427480172422        3.29565955194373       16.19730381156372
H            7.36813211131302        3.63980526643070       20.84823254944046
H            5.97635812063395        4.16955889111168       19.90456064659960
H            6.57661940345680        2.58720022192165       18.01990804789689
H            7.94215253196010        2.01126097827426       18.96952789708665
H            7.41109980482363       -0.49274637718241       16.55411185571772
H            6.83964455258126       15.79223025963165       20.05816619673288
H            8.51950516193722       15.23042874247866       20.20325590490268
H            8.24730577262448       14.89128537229645       22.62208829205965
H            6.54128826555145       15.29416789043553       22.53187725078823
H            7.27619697524969       17.59297410101040       21.60128771304954
H            8.92023887245205       17.13172091107491       22.03983126542077
H            8.13797871856243       18.41895168768281       23.87567427731452
H            8.03740997545059       16.75531157523980       24.43116469054494
H            5.57962652344412       16.76899357886404       23.71150722092894
H            5.74942591959564       18.51269101759684       23.43714502121321
H            4.22146314620040       18.81390168684134       25.00602457735396
H           -1.43767459000838        8.84715211574350       27.45384629229912
H           -2.99845658554116        8.36682779803944       26.79388551674880
H           -3.87729336875522       10.65547346399999       27.16396007132935
H           -2.29984981513554       11.17851816040759       27.75867404791263
H           -4.03938692437746        9.01915913205082       29.05027325380468
H           -2.48066441744107        9.55684371700852       29.65116568119748
H            5.94525565490401        4.27549155118353       27.65292821971491
H            4.23328172381968        4.62625454040508       27.39832354274382
H            6.61729051193465        5.88650099682113       25.63878778423948
H            4.89423919869003        6.30483115866737       25.74697473203199
H            4.43591669262687        3.84228031046645       25.03926384776532
H            6.15710473720264        3.56176883635747       25.27955779703175
H            3.83644257798930        2.21919877174653       26.83666426321675
H            5.53658394187678        1.87383999274981       27.10637705153892
H            5.29838992003805        2.66227186390215       29.48148316219347
H            3.56621152650241        2.89324353951386       29.20213880228215
H            3.79872363576763        1.39168552171071       31.06591565285453
H           11.85237385057794       12.19365070047615       27.25406425875718
H           -3.50008336801724       15.53695022928276       15.27074661262501
H            4.58375266120698       14.95968251095899       14.00292525345682
H           -1.26910935442681       -0.48215044360133       17.40883809235090
H           -1.80137632804054       10.11132898527962       19.06094699446454
O            0.25961184444619        0.75701981202603       23.61181541868489
H           -0.27295304463184        0.40042983197275       22.87700419736293
H            9.09833202507862       10.71550030001279       19.46317017973474
H            7.75573726185440        9.87021149740264       18.63870605521837
H            7.28357518236475        8.61991464319963       20.55808100123866
H            7.08173593690551       10.32263696963736       22.56409327026420
H            8.73223148272568       10.80965707413321       22.14653006560929
H            9.54124162576640        8.53260862643384       22.62572969146729
H            7.88659656748706        7.93908616673782       22.79966023158606
H            9.15878081793869        8.31521739702682       24.95981499521310
H            9.07275327011101       10.05893329092809       24.63458157456159
H            8.14765773865997        9.20935726489677       26.81578374150828
H            7.01004601172700        6.51571664563045       19.87804427131833
H            8.25576440542976        5.88903676587568       20.98154134254177
H            8.88966927347222        4.31965513477324       19.00630820596629
H            7.51421156633779        4.89794915693456       18.06772023281674
O            2.45781340239269       10.69084638308130       23.34569362988030
O            4.65310991870271       11.26762434904908       22.85473313333031
Cl           3.44395312693693       10.73446085371798       22.32266718487591
O            3.00215796696436       11.58339901697173       21.26666580771229
O            3.67819954759350        9.42648001470089       21.81523175920579
