259

Cl           6.08278907780798        7.91378237143469        6.17931196510127
O           12.14837104842881       11.60494606506223        8.80433040016621
O           10.61470899257329       11.03810552722714       10.35185475309214
O            7.63524448371201        4.86811288889713       14.53666796637848
O           11.31881428626998        5.48919693857666       13.17542513859777
O            7.22681993257085        2.43225539733234        9.71454029508243
O            5.28387686194419        1.35436815769960       10.02744683327051
N            7.05300663553141       12.29112261615415        5.17740692423043
N            6.98226412389097       13.39322954434426        4.41837633395202
N            6.05806409606966       13.24370445819771        3.55479092112473
N            3.78278743079268       10.43884375094551        3.44140398435837
N            0.99477504320629        8.15596251852653        3.10320373229273
N            0.72606419175941        7.23588429108855        3.94361528866044
N            1.69975441957892        7.18167840506229        4.86398593524754
N            3.63216019520133        5.33875852459834        8.88466616600032
N            3.51461765898565        4.66110544772566       10.02612787229402
N            4.62074595502920        4.73869315716132       10.66470271497460
N            6.55334985622231        4.73577344118491       12.52019665489844
N           10.81946198969240        6.81131651777077       11.37702332809216
N           11.01930734760573        8.05254913526186        8.99125005446217
N           11.37081808968700        8.72535298084611        7.96012798343014
N           10.33724856417465        8.79277844512667        7.12001774353411
N            8.38688647624111        9.98004960261939        2.87999109954056
N            8.35273291171717       10.67918020791514        1.73588245063794
N            7.32510119388506       10.33116347354523        1.06169307843716
N            5.22014200681526        7.58321327776474        2.09100338536874
N            3.30660213808589        4.56771324288234        2.58729795187791
N            3.47753972889882        3.79996656403378        3.59187585119426
N            4.32716176756316        4.38534274707195        4.44946750005882
C            7.98575658156657       12.14602294571346        6.20919244166349
C            7.62477171075648       11.50543226258541        7.40538010969322
C            8.59412087498682       11.31374391565986        8.38907294454482
C            9.89756639084959       11.75363381525793        8.19642469477432
C           10.23902954422718       12.43502302082840        7.03448964611631
C            9.28901130677261       12.63873271343041        6.03396500133493
C            6.31560051553263       11.03869822388465        7.64016906999166
C            5.22077534661866       10.58827080930161        7.88267377170285
C            3.94938049508999       10.01324514277714        8.08543911637020
C            3.72083988309981        9.18298249645944        9.18548214529216
C            2.48556148502482        8.58917514483910        9.35572499447344
C            1.46790827794751        8.81716192881826        8.44178576727267
C            1.69067186516922        9.64215554827384        7.35030355008798
C            2.92326726503107       10.23880240335225        7.16508086498317
C           10.90162705844137       11.43332848567348        9.24390581281966
C           13.22502818645409       11.27962632919131        9.67741310447345
C           13.99477116948895       12.54393826071588       10.06058486116889
C            9.66371374706527       13.27604162170639        4.83390436251544
C           10.03873505110641       13.78763231366809        3.80556806420270
C           10.44557574275306       14.34759857376974        2.57704834304917
C            9.89893315142994       13.86154998335900        1.38652751781333
C           10.30536650847803       14.39622848082984        0.17894824126989
C           11.24696051525736       15.41388549808129        0.14419310163284
C           11.78919317912830       15.89863599889643        1.32486706473117
C           11.39608218711943       15.36980469842508        2.53934848924821
C            6.12037492986923       11.40219111793706        4.77404766304043
C            5.48358693266070       12.02480984999317        3.71563465796397
C            4.37787928316124       11.50857405798733        2.92791379018624
C            3.96243685780011       12.10462766972078        1.73606713178431
C            2.88304140799078       11.54825702887937        1.07045953781570
C            2.26205476339686       10.42786408226037        1.59808249759244
C            2.75591479646856        9.90246159801107        2.79262432351717
C            2.16411515365833        8.75161421374557        3.45033531409323
C            2.63272783257144        8.11768631550054        4.58588371234668
C            1.61406192212847        6.34575665710387        5.98146173940990
C            2.69822641149518        6.21883447294885        6.83805159670923
C            2.56405292006976        5.45321570593569        7.98766243934787
C            1.36447439786105        4.81134796879819        8.27633261746239
C            0.30032033828323        4.93323480827574        7.40190794464445
C            0.41441382179076        5.69711932734271        6.25507195494852
H           -0.63026270787917        4.43470321854952        7.61940255627369
C            4.87033484617984        5.87171551167182        8.79426475385931
C            5.51506340900184        5.47932611501774        9.95584519891978
C            6.86766876060589        5.78782341831516       10.38398851185443
C            7.68098169604290        6.49983734152601        9.51358851271894
C            8.98210854945824        6.86484616535849        9.83229689251787
C            9.50582993034201        6.46449446162795       11.07828725252415
C            8.69599064917656        5.76286123665187       11.96550026608830
C            7.38397518644738        5.43021167092235       11.64587834695286
C           11.62028539130838        6.34208206476005       12.36926183576626
C           13.00588418392038        6.99464016774483       12.32112455283823
C            6.70466607674323        4.50638957318053       13.85356343023088
C            5.50831334195089        3.71693421168939       14.39747379605277
O            5.69344307689593        3.44557883736807       15.76089677592666
C            9.72576416308318        7.65055859248736        8.86266413230717
C            9.28045767711944        8.13481059791175        7.64374126073085
C           10.42615849969092        9.43911212020829        5.88249372432729
C            9.33578108873210        9.44502303265969        5.02531320546341
C            9.45442288732438       10.04678543046846        3.78013981076478
C           10.64139288356179       10.66390025421381        3.40296537387845
C           11.71240726316621       10.66864747355484        4.27880280749716
C           11.61786138711584       10.05567904573625        5.51483842377294
H           12.63347421591682       11.14755159277206        3.98896468013242
C            7.32476235165293        9.15107637145739        2.92806284615500
C            6.64801736389264        9.37394637373467        1.74325878994647
C            5.48595929493206        8.61963348317794        1.30554152261586
C            4.73751142560396        8.90048112462130        0.16336158769090
C            3.66855055589093        8.06840709240428       -0.13307612260833
C            3.37688933624749        6.99717836196615        0.69620403786130
C            4.19337169105590        6.79217280306410        1.80901870705894
C            4.04386751406654        5.69498179449589        2.75129331576297
C            4.70923870115258        5.58136911009088        3.95860797392277
C            4.75106896994821        3.79598924347508        5.64462947914201
C            3.85774661402891        3.01432217674545        6.39633056743178
C            4.28149557873193        2.46584486923896        7.60696690064205
C            5.57211170913143        2.68900104589618        8.07229438347849
C            6.46176542035879        3.44181430743634        7.31643845044691
C            6.06872315912000        3.98691680755959        6.09396287830269
C            2.54070488539612        2.79631189109457        5.94890986418476
C            1.39929188874255        2.60200050455353        5.60452925969367
C            0.07738125507151        2.42000608812767        5.15193764848654
C           -0.36133608473471        3.11931598287539        4.02466023652418
C           -1.65836788844543        2.95676488121576        3.57851312847779
C           -2.52406142601878        2.10076075810869        4.24353371936167
C           -2.09006487787513        1.40224562778047        5.36031010150642
C           -0.79585911792731        1.55820983222315        5.81872040667612
C            5.98181890052317        2.08939053935888        9.36692447608632
C            7.73828015762335        1.85476222117934       10.91194659974551
C            9.19890483068986        2.26649080408986       11.05530275533287
C            7.03635667586371        4.68095871794007        5.33777689360372
C            7.93163391986245        5.23724712010755        4.74676633235202
C            8.93992375171862        5.91691939607611        4.03251495360944
C            8.69685187508290        6.37050268941765        2.73372832190916
C            9.68992959163179        7.03783249786207        2.04229061372625
C           10.92460000441407        7.26264000493810        2.63141954993412
C           11.16927133187843        6.81509381806595        3.92067394383468
C           10.18635662839060        6.14406055344331        4.62135747641754
H            8.33483403976077       10.80168433967918        9.30371056327038
H           11.24475561540362       12.79315493079480        6.89117238707471
H            4.52343969411417        8.99982248088022        9.88646329247409
H            2.31454667643717        7.94155219176141       10.20382838253632
H            0.50624098540127        8.34525924182536        8.57625427380688
H            0.90078606507491        9.81730827616315        6.63368760853250
H            3.11192844335986       10.86018863641678        6.30065301485253
H           12.83532204956043       10.78738243823265       10.57240253776576
H           13.87995858522252       10.59252398998903        9.13820165997319
O           15.10047842774559       12.15310502908208       10.83997703342611
H           13.34051309958547       13.22475617436785       10.62715166140649
H           14.32738224719873       13.06294639588627        9.14913685392679
H            9.17001041440927       13.06486257138425        1.42256654710320
H            9.88294743951686       14.01539851924474       -0.73915848474443
H           11.55842189480746       15.82876188818907       -0.80294244971718
H           12.52219694640575       16.69147212024926        1.29718238793319
H           11.81171291978183       15.74211048154699        3.46405959389962
H            5.98039655887175       10.43605637510797        5.20544800349049
H            4.48326774304035       12.97368798339886        1.36904156129464
H            2.52854648611868       11.98394912112691        0.14753791452542
H            1.41761130893965        9.95704914704179        1.12192990878354
H            3.52296568555408        8.29445501381578        5.14616447777182
H            3.62413176471028        6.72149012108831        6.61782349179942
H            1.29247216058991        4.22882952368896        9.17972331412475
H           -0.40581824215070        5.81107606736312        5.56601633677014
H            5.20118580790212        6.46926245859037        7.97475895016238
H            7.28289387519594        6.78465067280666        8.55502463441815
H            9.08921518892911        5.47855227531234       12.92622382547062
C            4.62810511661596        2.70842829903903       16.31946014718622
H            8.33293934002381        8.05357953035215        7.16072107327224
H            8.40985901512305        8.97950623079519        5.31413141181656
H           10.70358707999847       11.12233155801697        2.43025442022182
H           12.44398565253430       10.03987149143530        6.20624462899898
H            7.08891899313328        8.48383534372584        3.72572123623871
H            4.99930871240289        9.74366013955289       -0.45506351320827
H            3.06366725125805        8.25483802582737       -1.00864131685323
H            2.55230716623033        6.33022226761969        0.50499748138755
H            5.35092128275720        6.26482906692975        4.46832396464740
H            3.60131083264534        1.87413878651861        8.19932405907453
H            7.46629725721824        3.60903829991297        7.67009084654337
H            0.32601884554737        3.77896115884301        3.51655732321014
H           -1.99533981459985        3.50141544823010        2.70893234122998
H           -3.53680220746142        1.97673166478678        3.88996715065494
H           -2.76426219240029        0.73392159312786        5.87535273088501
H           -0.44797766376555        1.01947483726536        6.68778684645938
H            7.15688475629060        2.20418284535915       11.77012114199332
H            7.65377702653292        0.76417628325140       10.85920025549065
O            9.73644428007528        1.58928251219631       12.16474355438027
H            9.26699775998586        3.35525039978674       11.19244391640423
H            9.74679553913702        2.00005295640885       10.13748770810310
H            7.72543551009747        6.20629857265523        2.28889099427602
H            9.49649002655747        7.38863394842722        1.03862414691178
H           11.69449664550375        7.78751764868915        2.08723705919633
H           12.12989021911192        6.99202901228705        4.38093082887668
H           10.36591198135196        5.79283714222597        5.62796611083118
H           11.22841780752038        7.43824072121689       10.67702629644000
H            5.66137247471891        4.47441835438052       12.08514542298106
C           11.06609376593112        1.98133643867179       12.44599349829193
H           11.11849238857676        3.05806509084179       12.65515389845237
H           11.71831010499853        1.76063182063736       11.58793581092052
C           11.55698951145788        1.18895128461596       13.65419035986716
H           11.07015755070030        1.56285548245195       14.56502521055413
O           12.95715245638323        1.33048696339737       13.74001817505675
H           11.28348056243386        0.13069161677404       13.52450983360533
C           13.49940243476440        0.72946221660623       14.89555206824072
H           13.05933050195202        1.16698313662890       15.80309450053435
C           15.00649136000255        0.96707591086965       14.89418981257111
H           13.29576793128989       -0.35160519532214       14.90347776686176
H           15.19915842920032        2.04957462416693       14.88180586270072
H           15.44350039826629        0.53253762981683       13.98268731502493
O           15.56326632907992        0.37253485810074       16.04372495502319
C           16.95606797471579        0.57289990606589       16.13889245927388
H           17.19816210399760        1.64084852718660       16.19238195371524
H           17.47702478759683        0.13518976361875       15.27900652355316
H           17.27529931799098        0.07770739056047       17.05316301464878
O           13.62452339473963        6.87742522285486       13.57586540798740
H           12.91215079819186        8.05171245403997       12.02911978230916
C           14.95357636290312        7.35106702235483       13.57728425008319
H           13.59539778565796        6.47469048449455       11.54734454110702
H           15.58038558421541        6.75189698652611       12.90058124722615
C           15.49486086482034        7.24391429183219       14.99979831840546
H           14.99319746080810        8.39835227327964       13.24478597363870
H           15.40991759444093        6.20265982262991       15.34134853241184
H           14.88903160782448        7.87008119280370       15.67031680076761
O           16.84047462864464        7.66473335225009       15.00052885234517
C           17.43343161360607        7.60005401687122       16.27964862334735
H           17.39562428638879        6.57424027514290       16.67367228748692
H           16.90408231450497        8.25481907039214       16.98697777224464
C           18.88696164483538        8.04797660443878       16.15728292998588
H           19.41311763379489        7.38852950763132       15.45124156699953
O           19.48637838180503        7.99348777299887       17.43130311426662
H           18.91963081975448        9.07165540552331       15.75653398416286
C           20.82966472510469        8.42477161647829       17.41988482083267
H           21.44252989727644        7.78979809196656       16.76930779408784
H           21.18433745572225        8.34938308803228       18.44530252347270
H           20.90744533872832        9.46295299991952       17.07593337867328
H            5.40860900304369        2.78156257530975       13.82282542170690
H            4.59272760394428        4.31024059324217       14.23868277937470
H            3.68270743491320        3.26412088505615       16.23218623768958
C            4.94132757692643        2.46089825715229       17.79186754126216
H            4.50813336400646        1.74553863741647       15.80160760291266
H            5.06801519613318        3.42535073921626       18.30415572731123
H            5.88695193301270        1.90635048724432       17.87314904840785
O            3.87884342041333        1.72753475040814       18.35886037230540
C            4.08630713255458        1.43317138340642       19.72375617201524
H            4.18276062328781        2.35831576296127       20.31015943409689
H            5.00716796190391        0.84770880146412       19.85816289875929
C            2.89205629846354        0.62941573424611       20.22956031603992
H            1.97280535156419        1.21839309845579       20.09493574226932
O            3.09500056312836        0.32776417737904       21.59086679091681
H            2.79669218443049       -0.29213784001448       19.63650609420032
C            2.03261851532275       -0.41303068807316       22.14954394334974
H            1.09018856995500        0.14424171776893       22.09195513530855
H            2.29443802251028       -0.58541837751012       23.19103920808108
H            1.90771295618379       -1.37313907607843       21.63523804627102
C           15.92110853798528       13.23909596064566       11.21516446648688
H           15.34888371369508       13.97581067779226       11.79643823428260
H           16.32696383378710       13.74314378707369       10.32649572997002
C           17.07281121674693       12.69845147759766       12.05775868119364
H           16.67926095295939       12.26029603320321       12.98580944746989
O           17.95485730265947       13.76160036124760       12.34290468665402
H           17.58836912474337       11.90462510576894       11.49829952682537
C           19.04770594242827       13.36238136957489       13.14175818148006
H           18.69931474186504       12.98363240339451       14.11334576137098
C           19.95386550030394       14.57015511995575       13.36031991750089
H           19.61740434209731       12.56189732706175       12.64804919620241
H           19.38689243492327       15.36712975330401       13.86412216763257
H           20.29028246057821       14.95418681450753       12.38602810784544
O           21.05356489458842       14.16889802537914       14.14444809451389
C           21.96099176984036       15.21971521051833       14.39092869918277
H           21.47635380265619       16.04079386759006       14.93268928939816
H           22.37620024047219       15.61052253211628       13.45461345078806
H           22.75856752568180       14.79969755027284       14.99955572840348
