137

O           14.63941545452205        5.19608331791643       -0.99620711370554
O           11.25626756667159        8.41515835842561       -1.95081490580839
O            9.00987875278114        8.29792490602330       -2.62667796603669
O            6.02864997804198        4.72067109567459       -3.65474327527334
O            6.14312402074731        2.36942636697758       -3.61002849854070
O            9.48599924554475       -0.84529816329907       -2.51377193319938
O           11.72379587245398       -0.72638994283494       -1.80830873566937
O           14.75813572458102        2.84880095440640       -0.94470331579407
N            7.82022256490717        7.56926820208389        4.15037185196084
H            8.43870272007566        6.76329329725900        4.25813198624165
N            7.39930492466467        9.75854874440705        4.80443995886147
H            7.58350444426319       10.53075195478807        5.42004629426058
H            6.77377251500796        9.90991844119686        4.03342269370303
N            8.93723905077731        8.46200678877940        5.92510558697749
H            9.14281521059963        9.21175090904419        6.56128945589866
H            9.43300693351261        7.59182470196266        6.02313585810867
N            4.56352283745605        4.81589410061842        3.03919301291224
H            5.42406384028052        4.27634424145558        3.12096163846736
N            3.04672216304517        6.15077864410763        4.20448304961660
H            2.35987848000039        6.10305075325262        3.47403176162597
H            2.80378122513637        6.64543975792819        5.04479322445533
N            5.05110677176002        5.53352414449749        5.14540748434311
H            5.88863189870180        4.96558821838074        5.09542689300312
H            4.78240432309771        5.93729520716205        6.02521477668782
N           10.52609614759310       -1.15039724977586        4.92132889978884
H           10.83995351606662       -2.09354455235448        4.74306747251587
N           10.50559492305440        0.62558329376878        6.42827403038596
H            9.99675681753351        1.24718153870524        5.80609650040375
H           10.77033756424386        0.98717504260577        7.32828055960517
N           11.66247015987692       -1.29610329222918        6.90687357745701
H           11.80886057481156       -0.96424377308566        7.84603028656284
H           11.80086555374846       -2.28156128548434        6.75898214914384
N           13.31482644009385        1.54610704129482        5.42035225998237
H           13.13010430090855        0.63316172803980        5.03033879091680
N           14.74877916548045        2.79762477869660        6.75091313299473
H           14.41734416456438        3.66326087014581        6.36234244592150
H           15.49313588215983        2.84101942067849        7.42480089927513
N           14.82421377507698        0.50287376481433        6.78953042489707
H           14.55486749273818       -0.39144520351892        6.41791590315113
H           15.59113802117460        0.52510723107149        7.43897712686501
C           13.35570178950697        5.67612244265034       -0.72892541880684
C           12.88830357965673        6.73995412951717       -1.48580724485758
H           13.50156132175508        7.15220995476181       -2.27226033199870
C           11.64616803542780        7.29406673911380       -1.21469057369568
C           10.35519506817474        8.22006895090198       -3.00296502428770
H           10.56042060118182        7.26903541508884       -3.52189191005187
H           10.51674188171631        9.06310352968489       -3.68241269618960
C            8.39118136613976        7.11761255378522       -2.20944184823647
C            7.58145015633509        6.45143743304052       -3.11728522431274
H            7.47582990079381        6.82782267722935       -4.12305817707004
C            6.88357116988807        5.31883791135057       -2.72521564720143
C            6.47503175863114        3.55259475679334       -4.28205858952181
H            5.93065059632335        3.50768919175079       -5.23096828740421
H            7.56051872194179        3.60112644278207       -4.46843805345615
C            7.05513808628644        1.88640008195054       -2.66838141641949
C            7.86808710312920        0.82578580730722       -3.03714023301822
H            7.80066050305754        0.41639152199596       -4.03342345848180
C            8.74604852249510        0.27089631660838       -2.11798778442715
C           10.82364214307588       -0.63969057456962       -2.87415756342314
H           11.07494843281178       -1.47359254034620       -3.53749757848370
H           10.93974252384402        0.31841795097210       -3.40730477894936
C           11.99853838798646        0.44688597965746       -1.10067240059452
C           13.17746618477582        1.11769922290265       -1.38894467505071
H           13.83023274534735        0.74961844706615       -2.16531467179379
C           13.52948032551339        2.24686222901375       -0.66459886926163
C           14.74622935395786        4.00758681189759       -1.72878739535610
H           13.95798433329557        3.95111177274014       -2.49735228012416
H           15.73241074808621        4.04819350335905       -2.20266219552387
C           12.57741841692470        5.14626567728305        0.30059722032179
C           11.32303867986274        5.69149930016536        0.52789323443481
H           10.69992276934184        5.25927181379707        1.29154569999265
C           10.84512709269811        6.77199240581101       -0.19831342336115
C            9.47321798977559        7.36213684490249        0.04094894097242
H            9.51028892118170        8.41118188670112       -0.27881496939975
C            8.54151691700219        6.63788069571602       -0.90754666767138
C            7.86169926341541        5.48255404066476       -0.55088354842621
H            8.00795588820647        5.06703558660879        0.43155460392383
C            7.00539531190201        4.83029365825385       -1.42464313247523
C            6.23566817239622        3.58940326333358       -1.03257009465441
H            5.36751800035136        3.52941448787170       -1.70225154867511
C            7.12261857381278        2.41493463475967       -1.37814945487713
C            8.03822999476153        1.87149553722020       -0.49024763374113
H            8.13328050644172        2.31118745121583        0.48764692253078
C            8.84081998583444        0.79029530140392       -0.82656360297792
C            9.83899840242800        0.18613879053202        0.13855424924560
H            9.99047720266524       -0.85636954796589       -0.17006761793034
C           11.14317104367293        0.91379744921171       -0.10132226301165
C           11.50145540909875        2.06298185093759        0.58748418217427
H           10.82257340782606        2.45691207436066        1.32482166966873
C           12.69513903462864        2.72838530180611        0.34477167384431
C           13.10670565279944        3.97575087077563        1.09688406652567
H           14.20216132917796        4.02927520266022        1.05290213154667
C            9.03084468469882        7.30707750010526        1.50374561170714
H            8.91193979982713        6.27163950222485        1.81750546503143
H            9.82253688612726        7.75275222609872        2.10515413515048
C            7.71236882059642        8.05710815518268        1.71766597403985
H            7.06269492565136        7.90160137312803        0.85535748850940
H            7.90991008564760        9.12728477524512        1.78699954716646
C            6.98443375299485        7.54779421850840        2.96833942832671
H            6.07500335439509        8.12528272952261        3.13704337038179
H            6.70380883977118        6.50614301656328        2.80620088400180
C            8.05950395179089        8.61177054251288        4.93556930344139
C            5.70750056635288        3.60764476156979        0.40628359040715
H            5.18471710388410        2.66395347489350        0.57041319197016
C            4.73513977733215        4.77794460781914        0.58315374188609
H            5.29036318998628        5.71451404720104        0.62977128747635
H            4.09055883867636        4.82776230890176       -0.29679836284561
C            3.82386724943246        4.65285990341834        1.80721343178408
H            3.05755968106882        5.42422083057805        1.73103013169198
H            3.32949380312940        3.67513233414216        1.79073812273756
C            4.19603345138139        5.48436012294038        4.12621945905887
C            9.34248403062964        0.19350155060374        1.58468943361548
H            9.20224921783587        1.21351625241337        1.93779174917755
H            8.36899869879547       -0.30045329635499        1.58982873956733
C           10.28770789637518       -0.53339853049148        2.53964104740022
H           11.22835565916510        0.01359067900757        2.59867412544795
H           10.50066981282913       -1.53371758063487        2.15776245939147
C            9.62814422443684       -0.61427343343112        3.92001351674544
H            9.30244383347433        0.38490504182481        4.20219752080297
H            8.74251192432515       -1.25374836437810        3.85525824255815
C           10.85735531267491       -0.60158554702489        6.08756727988585
C           12.68223312796609        3.98381263145921        2.56622660422378
H           12.95468630931363        4.95078775797659        2.98902951756020
H           11.60221114853672        3.87306447281578        2.65660005584064
C           13.37001315421528        2.85335506653665        3.32965150168139
H           13.29307628124164        1.93608482617153        2.74303484775778
H           14.43149679645160        3.07989513995941        3.44456877127326
C           12.70947930394927        2.64383587540911        4.69522067007665
H           12.75708271390558        3.56038365452521        5.28068011264214
H           11.65459196570117        2.40650339683088        4.54306840205467
C           14.31886539117810        1.63008659982216        6.29148028464195
H            6.52635826456751        3.67368530605769        1.12024234854865
Re           8.69889634589254        3.76959727902405        3.73429801973412
O            8.98703544190803        3.65263360392454        2.08720887905450
O            7.03692488192816        3.83280138469263        4.01017804069269
O            9.35098951846268        5.21689877834664        4.30288788094325
O            9.41043617204176        2.47669320216686        4.54457326484294
