217

C            1.74305970913488        3.42835387855768        0.62400706285524
H            1.83603299004200        2.43581688375454        1.08616894151062
N            2.90271767137262        4.23437532716892        0.89301609113612
C            3.46405484816358        4.71157540535795       -0.26071367435721
O            4.42940919823775        5.44658370732923       -0.36368428844834
N            2.76941290514906        4.20552503710380       -1.32075169867133
C            1.64714553888124        3.41288770674259       -0.92257723072887
H            1.67654705070450        2.41314361102801       -1.37933028614269
N            0.36555352560516        4.03916522292011       -1.18557254613729
C           -0.30758945271731        4.32967607403737       -0.03936549197011
O           -1.43550516807474        4.78872798694505        0.02384274677808
N            0.49144052332207        4.04472699395360        1.02495747125618
C            3.14014682631073        4.47783891356224       -2.69017878887035
H            2.76187464879231        3.68319532279031       -3.32955906582934
H            4.22745711708845        4.51921242965942       -2.74664832083105
H            2.73799731750306        5.43841573549670       -3.02094701048831
C            3.47223479577192        4.32781858530611        2.23794526310460
H            3.02881687088522        3.49986136916693        2.80268873664449
C            4.99066490530238        4.13901657714075        2.22172466707053
H            5.24710339127250        3.18951056686102        1.75674889179623
H            5.35762068038369        4.14541131724146        3.24433347355683
H            5.46625636623270        4.94113286341608        1.66541879205174
C            3.10283013383654        5.62432191526638        2.92795571298625
C            3.20787845416119        6.84761921587840        2.27909428452524
H            3.56746115587214        6.88273865739979        1.26272493826391
C            2.86473564468739        8.01797694101737        2.93418624046227
H            2.94849981247700        8.96239383285915        2.41675281128769
C            2.41938711796205        7.98059147188141        4.24466008236927
H            2.14817506173880        8.89461874959611        4.75166666603327
C            2.32501954366746        6.76621890992794        4.90283447754225
H            1.98178865977186        6.72782162464307        5.92606483655947
C            2.66533131665704        5.59498522718336        4.24841614388629
H            2.58743812619888        4.64591862150573        4.76035597684019
C           -0.25768390923745        4.12615044477783       -2.48087942128789
H            0.45617540882599        4.51911816526247       -3.20855539620742
H           -1.11103576880496        4.79817568872856       -2.36597303189663
C           -1.76500260773242        0.79019153592103       -3.32916513749438
H           -1.64337104088508       -0.12356921975569       -2.73280879121501
N           -3.01385799950950        0.79930472254692       -4.04394698006324
C           -3.75856989454969        1.90457201894498       -3.74539975201610
O           -4.84371428852883        2.21653304880019       -4.20452428413675
N           -3.09487389508684        2.63153623442340       -2.79900434620222
C           -1.81358513550243        2.08371418270659       -2.48180050062937
H           -1.69301593384377        1.91389713342476       -1.40274787395854
N           -0.70028506916079        2.85819561463431       -2.99620563921376
C            0.03415681021964        2.15417445665031       -3.90075563698978
O            1.07988848988280        2.53399218225775       -4.40233418140200
N           -0.60414076936645        0.98600275515592       -4.17781958487976
C           -3.64929924456287        3.83663694392820       -2.22625320300764
H           -3.16412575131742        4.03990123130586       -1.27453318077103
H           -4.71837139705331        3.68528693111602       -2.07688686655989
H           -3.51155650886213        4.68736497992976       -2.89818033415061
C           -3.42753931006065       -0.32715826151468       -4.87864196999817
H           -2.81187084394462       -1.17352149291893       -4.55483511998715
C           -4.89789355291261       -0.68698170980814       -4.65388940933791
H           -5.07765370767869       -0.88935683906131       -3.60047575676441
H           -5.13540819191232       -1.57403495425006       -5.23432239309513
H           -5.53948882667571        0.13097595158368       -4.96742766236591
C           -3.16012237168930       -0.07865567118428       -6.34825805854417
C           -3.50124882477902        1.12321413633151       -6.95470161315084
H           -3.97108401533015        1.89993791854459       -6.37173142049333
C           -3.25112008168692        1.32270145944260       -8.30168839357775
H           -3.51985949904343        2.26316592484711       -8.76014129830794
C           -2.66391408675942        0.32295269710537       -9.05853043040749
H           -2.46784422976936        0.48165474535630      -10.10861666472101
C           -2.33348700989660       -0.88303106171367       -8.46395008991346
H           -1.87840842213886       -1.67017362750614       -9.04687422100231
C           -2.58073295353796       -1.08300114489499       -7.11666522374940
H           -2.31842857968481       -2.02223629186090       -6.65025183726617
C            0.02137757777231       -0.04249688546138       -4.96869511447722
H           -0.72218948197986       -0.51939710712049       -5.61150691823421
H            0.78548139525341        0.44902443590768       -5.57535237806800
C            1.74510047931355       -0.91317199126319       -3.28437949412060
H            1.59423086400355       -0.01595886713165       -2.66898050970632
N            3.02324989412405       -0.89848002605265       -3.94471652612285
C            3.75430395855089       -2.01539199270544       -3.65374641962910
O            4.85363174993955       -2.31645926103625       -4.08612088674262
N            3.06228672018693       -2.75979214212959       -2.74236871596762
C            1.76317848766572       -2.22751901037409       -2.46957500258486
H            1.59263426426484       -2.08595829220965       -1.39356358596964
N            0.67874888128123       -2.99559482316500       -3.04952663386581
C           -0.03199466735654       -2.26080772018581       -3.94906704869891
O           -1.06264916642176       -2.62030483299887       -4.49390201909543
N            0.62162464960184       -1.09030015665530       -4.18367225535516
C            3.55720280507005       -4.02279627421580       -2.24629165501171
H            3.07932567257163       -4.24876554428497       -1.29588164066877
H            4.63503461607795       -3.93432030312586       -2.11435413730394
H            3.35895288108700       -4.82928563792155       -2.95680937179534
C            3.45924588880069        0.24368192885915       -4.74621292894638
H            2.83004089709511        1.08225098986211       -4.42780713910183
C            4.92036165092844        0.60335492057428       -4.46647301221098
H            5.06399728364649        0.79374604386935       -3.40521718386799
H            5.17691047712335        1.49724791888421       -5.02819600012880
H            5.57327895240318       -0.21032640641721       -4.76759188369479
C            3.24105774415657        0.02318590012556       -6.22866387947638
C            3.59715525290418       -1.16839900429267       -6.84644256335808
H            4.04409245777294       -1.95867699117734       -6.26387805540019
C            3.39102305261753       -1.34097818056303       -8.20458995722447
H            3.67015094763147       -2.27422804785367       -8.67151930475263
C            2.83368522550333       -0.32434116887764       -8.96141663649258
H            2.67173254322320       -0.46243439970612      -10.02018137138459
C            2.48917779942580        0.87187666574108       -8.35524469725626
H            2.05713667770479        1.67202686255205       -8.93793327872152
C            2.69196115598569        1.04473720759284       -6.99692150418771
H            2.41802207000046        1.97631139138012       -6.52192529392996
C            0.16126266029897       -4.22432853587124       -2.50703108786552
H            0.97154744047050       -4.94777411877819       -2.38804527921247
H           -0.58168032283794       -4.58132399506874       -3.22431812378835
C           -1.71094275461238       -3.31438967619962        0.62091970650382
H           -1.70730339990102       -2.31084689845318        1.06803239897189
N           -2.93405556847302       -4.01429156496489        0.91073270972056
C           -3.56279710888172       -4.42284828518997       -0.23316571700717
O           -4.59736299838480       -5.06124080119167       -0.31984746536620
N           -2.84954482762763       -3.97232986220086       -1.30492958395510
C           -1.63840160038529       -3.31222058001005       -0.92527348936487
H           -1.55625786636077       -2.31137298831788       -1.37061678154361
N           -0.44080739479995       -4.08290468563249       -1.20659537263372
C            0.23382660594127       -4.40163143714544       -0.06944486968855
O            1.32047248898165       -4.95472798896592       -0.02031649621255
N           -0.51319727112039       -4.03512721973882        1.00732695419236
C           -3.24646134435881       -4.25365349715770       -2.66458495924385
H           -2.82001911727988       -3.50406563289044       -3.32702705341097
H           -4.33434171363201       -4.22259302838558       -2.71124277160111
H           -2.91337126687201       -5.24773556239929       -2.97330892162205
C           -3.46877097354385       -4.09752387774952        2.27038810927225
H           -2.93621352583763       -3.32972881058265        2.84250001849585
C           -4.96378009097037       -3.77310896048956        2.31140328843537
H           -5.14597898685723       -2.78865823049611        1.88571946983677
H           -5.29737226351940       -3.78211202768541        3.34542640819030
H           -5.52711708134299       -4.50864860232205        1.74531426061649
C           -3.19307348691407       -5.44283611058658        2.91025992423247
C           -3.43209797518919       -6.63194997894408        2.23376122221375
H           -3.83757474211767       -6.60440176916691        1.23458383042896
C           -3.16078044888756       -7.84751163179864        2.83852766927940
H           -3.34941265902309       -8.76430725992964        2.29941345395469
C           -2.65277537807383       -7.88998167774292        4.12582968468888
H           -2.43678025117990       -8.83932780754128        4.59293625282222
C           -2.42825906459517       -6.70956675610857        4.81356563690175
H           -2.03703812445057       -6.73270899673682        5.81992825535781
C           -2.69928147727895       -5.49354783224874        4.21024868713599
H           -2.52109696710759       -4.57164753483244        4.74608970019242
C           -0.03877550939700       -4.21310581676015        2.35463574611091
H           -0.86818515004543       -4.50552992894084        3.00132555863788
H            0.71077867938083       -5.00647291667842        2.32577863894333
C            1.82484525103774       -2.45985604884474        2.55317304953674
H            1.89502621949952       -2.38281914439368        1.45909101873796
N            2.95310619130941       -3.16955655455157        3.09525083894391
C            3.60540420304134       -2.43392279062110        4.04621396335491
O            4.57763284647097       -2.76303173434943        4.70129114847655
N            2.99452101087791       -1.21643519718562        4.14501299533068
C            1.84627414785906       -1.10313072265058        3.30152030328139
H            1.90960740125338       -0.21615813714235        2.65542367098136
N            0.58863437220145       -1.10385665752524        4.02467472153049
C           -0.17488155243444       -2.19150094851623        3.72891913859941
O           -1.30722578266121       -2.38683176013575        4.13707995631946
N            0.53932534356413       -3.02328163653685        2.92379424727920
C            3.50210808195180       -0.15662234825884        4.98552333653101
H            3.17855500611596        0.80262650580290        4.58590815891271
H            4.59037624141585       -0.21394584707225        4.98695244544602
H            3.14901385490405       -0.26815435908110        6.01344898694464
C            3.39911995837350       -4.44296563907381        2.52793259996537
H            2.92258898652679       -4.50949919192552        1.54360623069952
C            4.91579619205811       -4.47234585433062        2.32827628605189
H            5.22925392694354       -3.63600765635352        1.70741754950339
H            5.18712037394386       -5.40179545473991        1.83545464159857
H            5.42671678250500       -4.41042089825971        3.28436455129424
C            2.94320908149691       -5.62520720150397        3.35722188655706
C            3.10000303303305       -5.64634101648603        4.73697586028684
H            3.56708931678556       -4.80991802032456        5.23318193339128
C            2.66889851739796       -6.73681296915627        5.47293971701920
H            2.79491428837671       -6.73959878876486        6.54567209595771
C            2.08147410565123       -7.81906400864497        4.83973389117102
H            1.74211406211637       -8.66649441772235        5.41654458405983
C            1.93648052561573       -7.81252240603009        3.46285777280379
H            1.48410224072223       -8.65422862570251        2.95952728306467
C            2.36689946642956       -6.72270257025456        2.72561118116556
H            2.25227056036883       -6.71577718758974        1.65054167441850
C            0.09336003015559       -0.01740099542940        4.82816877013759
H            0.91080910225773        0.39991958753362        5.41867051658454
H           -0.68560245769541       -0.43245965791685        5.47036745292241
C           -1.78374149727725        2.40681316180820        2.65160527120977
H           -1.91027490392150        2.32110083871685        1.56332213519005
N           -2.88918640067313        3.10975567678583        3.24511389558892
C           -3.48296190294178        2.37497300591563        4.23518609342475
O           -4.42566428551998        2.69945485028099        4.93410343247447
N           -2.84774991695744        1.16917947599956        4.31973889694278
C           -1.75227573013562        1.05507872008984        3.40828249378669
H           -1.84974255372875        0.16308151761884        2.77334747701820
N           -0.45286892377096        1.06583956168660        4.05387568912626
C            0.28235340926976        2.15992798210184        3.71562668349245
O            1.43618988801158        2.36667552319614        4.05213646405000
N           -0.48538583834593        2.98402086496963        2.95206122676640
C           -3.31197882003312        0.10545203661397        5.18032956352612
H           -3.00496731794463       -0.85194654249385        4.76374000236189
H           -4.39915721603253        0.15876679672365        5.23382562770340
H           -2.91006949155507        0.21609236394717        6.19015823986890
C           -3.39600319283649        4.35662909464727        2.67009997413364
H           -2.96635532809593        4.41254201355545        1.66382426469571
C           -4.92041055717493        4.34165981278912        2.53764826702626
H           -5.23773900354176        3.48794197737477        1.94284382226182
H           -5.23897261769957        5.25592897307718        2.04459933887005
H           -5.38684915508521        4.28075338853909        3.51629259379258
C           -2.93958254734407        5.57147871202002        3.45009180701288
C           -3.02249000969204        5.61768946998703        4.83560636330669
H           -3.42649304146076        4.77447893516935        5.37364789049177
C           -2.60104253112919        6.74250333989728        5.52392992928596
H           -2.66963604710624        6.76494150143405        6.60166474702229
C           -2.09869635792542        7.83452544725229        4.83678340923854
H           -1.76896981663814        8.71003076035771        5.37607293177197
C           -2.02502600475316        7.80107389779526        3.45455298009602
H           -1.63688677553328        8.64922257676506        2.91025817053744
C           -2.44346194721176        6.67611367835211        2.76515902468844
H           -2.38248488421983        6.64719665501474        1.68606265051370
C            0.03498277206574        4.19940328170800        2.38179562321191
H           -0.74622984138996        4.96180335946375        2.37488644273172
H            0.86638717658635        4.52094680928656        3.01164322483208
F           -0.17365481244365       -0.36099298901712       -0.80577591727799
