391

O            2.68537655503737        4.15619814405427       11.82573094567462
O            8.57789160437061        5.28269175966136       10.48217717816211
O            4.28297857701924        4.07358889002254        6.50978164171710
O           -1.55497816269908        3.21068885465097        7.56794116534351
O            0.77459170458169        7.68091085464232        4.23824877880053
O            6.56035649116230        8.42697570993332        2.96879852781841
N            4.37030025259430        5.71610888078202       11.87958828046391
N            4.14484186453651        4.44599795347837       10.07704572730104
N            6.66534789631307        6.27463795845735       11.27557982413252
N            6.49768552046868        4.81734468894998        9.61360147962816
N            2.69997412239611        4.20575745961734        8.16528263052890
N            2.23010137758898        5.04925702722117        6.17283426767561
N            0.34337737724638        3.94415061848378        8.63878401742053
N           -0.13234164823875        4.75126129063263        6.63010178889713
N            2.86608333045748        6.92283510358690        4.80130913263317
N            2.52737212514064        9.10691792295923        4.65049001051921
N            5.23675101095873        7.23715785139495        4.42402637211782
N            4.88938315740902        9.41293709704715        4.20017829690357
C            3.63330427285592        4.72032867056561       11.30815664022033
C            7.37321052969179        5.43251893099887       10.46327267481831
C            5.27797414622110        6.32953109138056       10.92675819105985
H            4.96481978315647        7.36456180179871       10.72510999754361
C            5.17877358642415        5.38401493122047        9.70092776660185
H            4.90413790500646        5.88717625150525        8.76251643295928
C            3.18483410195720        4.41396187390179        6.90935772168120
C           -0.54872879088495        3.89008927448392        7.60508317903770
C            1.42125334119346        4.85399790664154        8.37800315806050
H            1.50689004119080        5.61083676490195        9.16968983785668
C            1.08569111542553        5.42807989631566        6.97570012250992
H            0.95108129999116        6.51826125928529        6.95011710115279
C            1.93767408859137        7.88375456182647        4.54013484879119
C            5.65000961354960        8.36325738547075        3.77097726028489
C            4.11474221516112        7.48432611611242        5.28152775290020
H            4.31433384211818        7.14124784215808        6.30561960313031
C            3.88558627076287        9.01323819572532        5.14597927699185
H            3.98316373617906        9.57495506578671        6.08487358027057
C            7.29782463901302        6.98911744049003       12.36126154110747
H            8.20922983018286        7.46260522902664       11.98492011007127
C            7.68756303788911        6.01205799381906       13.48859152579092
H            6.61596229051655        7.76167322541090       12.71727563292111
C            2.50763443126149        5.52891586618150        4.84399069206842
H            3.33234266913353        4.92140257163501        4.46565664381831
H            1.62082926553157        5.42203142634125        4.21583011166372
C            3.49028137275634        3.54246896702143        9.16594257519710
H            2.85899341590466        2.89391788191991        9.77624462063265
H            4.23861093690078        2.96364350034457        8.61974599303447
C            3.99417298811492        6.26366173757426       13.15579705307344
H            4.88425001279409        6.52695148906035       13.73001025494971
H            3.42279077409050        5.47829543643112       13.65577845047939
C            6.93160062673361        3.89097276814679        8.58925480006215
H            6.27766526631212        4.00224807468065        7.72196266124732
C            6.93103790028926        2.41601793103559        9.04151766805755
H            7.95621106363900        4.15913870025258        8.31817097594759
C            0.09251165427573        3.29541231741290        9.90848716180239
H           -0.90701069134431        3.56774931735764       10.26154972672382
H            0.83015073964783        3.64995518612279       10.62889054923142
C            0.15509336040089        1.76123323022956        9.76797926266726
C           -0.85706580032062        4.90824079440103        5.39014105991532
C           -0.68349443574585        3.67594806265161        4.49395633108613
H           -0.50743271032543        5.80699002379084        4.88092874549043
H           -1.92007946059660        5.02217221289006        5.61851747141785
C            5.90271753795403        5.96464671516282        4.25926025905097
C            5.68336863950525        5.39917059140310        2.85101983602764
H            5.52725889586994        5.26176452254104        5.00405932645439
H            6.97606168108249        6.10327259423843        4.41493978597120
C            5.08927005448279       10.75493174931813        3.70311328756149
H            6.15811386339820       10.98201558593446        3.73243359343256
H            4.56121225203982       11.45933928368610        4.34682510978140
C            4.60468752576318       10.88371429390527        2.25357522727361
O            3.14697192775191       12.39806759044985        5.92515057931897
O           -2.78218795619155       11.64268183438103        7.03627929017008
O            1.45292521211261       12.54180087166450       11.19684164445265
O            7.31114635335548       13.32546121100430       10.25916506323060
O            4.90418932163227        8.91933606053539       13.58025973968448
O           -1.09524774398728        8.08883251778363       14.30195246272758
N            1.42614885731353       10.87932036112091        5.85068171841784
N            1.64004171459588       12.16384527003571        7.64127350416823
N           -0.91440532108065       10.50176315205838        6.34362808715349
N           -0.73571312984072       11.88593429263290        8.06645196616035
N            3.06373709364277       12.38799605052654        9.57148413312584
N            3.47384033811097       11.51121186858976       11.56266875931049
N            5.43265084088978       12.61051054085620        9.14221396544232
N            5.84754691918175       11.80378081833239       11.16424236847142
N            2.82050107298861        9.64604250074397       12.94043708545826
N            3.20531958437671        7.46528865050444       13.06577497057214
N            0.41542272486176        9.29828357192604       13.06736364304145
N            0.83204974077318        7.15621913409408       13.45655910599293
C            2.17230755613100       11.86293822836692        6.42391887758981
C           -1.60150088780690       11.38624887798937        7.13467530660231
C            0.44258168192842       10.33296497589868        6.76775513592523
H            0.66897401221249        9.27753818759701        6.97545173099347
C            0.55987092211625       11.26871434717434        7.99827429740717
H            0.79827326775202       10.75424948994642        8.94035003479527
C            2.55080582069172       12.17848987836826       10.81481040538030
C            6.29847648747072       12.65764730608806       10.19778871109357
C            4.33537760346372       11.71834929484031        9.37902065738114
H            4.25107389863429       10.96780226508418        8.58155290718441
C            4.63576981866041       11.13355818486059       10.78513869518864
H            4.76547686669925       10.04244856981748       10.80590761607872
C            3.76034212179882        8.70017199317839       13.22436095039307
C           -0.05265803862663        8.17134937435007       13.68318975319523
C            1.62996636676432        9.06204912407687       12.34783226598740
H            1.53532660223202        9.38370203513690       11.30085857666179
C            1.86520415498636        7.53945016940036       12.53145119182509
H            1.79685033246763        6.95494322076577       11.60236472777214
C           -1.59087444269002        9.66752767236418        5.37355394300384
H           -2.46322574904786        9.20248772153957        5.84345830951666
C           -2.07662967007039       10.50639091376825        4.17556934323018
H           -0.90478825633272        8.88518285508016        5.04814565821486
C            3.16974291328883       11.04274681799564       12.88962453819201
H            2.33298576004898       11.64906296346922       13.24316831246489
H            4.03942906475496       11.16116463010909       13.53953463022889
C            2.29948246325676       13.05977118518587        8.55503187064117
H            2.95383374995940       13.69005809873809        7.95020811905478
H            1.55620635373574       13.65981416140911        9.08431028559796
C            1.76425154065831       10.32601937625510        4.56722121406560
H            0.85238519134647       10.08228798198360        4.01788482120727
H            2.34232237589796       11.09126742558574        4.04478719464788
C           -1.13289154816030       12.84629240135760        9.07113530802389
H           -0.48227294696246       12.72818802873844        9.93899427235818
C           -1.08273759059317       14.28976616053554        8.55676730253823
H           -2.16963300134098       12.63106908489172        9.34204628376635
C            5.71060588742738       13.27263733027428        7.88546252819324
H            6.71697374167746       13.00238907023613        7.55140801947352
H            4.98942952572991       12.92550384522868        7.14495600621033
C            5.64552108100078       14.80522281515137        8.04167077857575
C            6.56038277190360       11.61642631155271       12.40711212370175
C            6.40669284025112       12.83783459551069       13.32144305429287
H            6.19028076352650       10.71908811492852       12.90409806070954
H            7.62283878868305       11.48595697501266       12.18473262407161
C           -0.26530336376965       10.56716524513980       13.20562336697038
C           -0.14451638163357       11.07093422115026       14.65665712751584
H            0.15884242901123       11.28535930062558       12.50310491361130
H           -1.32226134358846       10.41206323180377       12.96833566497776
C            0.60981790001261        5.81228139677997       13.94603233957617
H           -0.47172029393134        5.66388399755128       14.00531384958393
H            1.04456093890276        5.10765532055735       13.23427139054325
C            1.19871672611176        5.55265576806933       15.34708866694976
H            6.23557244744041        6.01046660537114        2.12394130586160
H            4.61483907079391        5.43688533715637        2.58726897083705
O            6.14524540869426        4.06695884544207        2.83409300041338
C            6.08778049514061        3.47982209429952        1.55150172039427
H            6.67822299369362        4.06410562490891        0.83218113704156
H            5.05044872272826        3.43681494000888        1.19019723398538
C            6.65410266831683        2.06677179818604        1.64882270211775
H            7.69203875290801        2.11316083878879        2.00590689590829
O            6.59191797684405        1.47966779379403        0.36672631515865
H            6.06726162339065        1.48510570087414        2.37317738261896
C            7.11788082681543        0.16850903846358        0.33326275224158
H            8.17043086844156        0.16522805392987        0.64879394731018
C            7.01187566243441       -0.34801138329394       -1.09799752813022
H            6.55551399298680       -0.49240337477142        1.00748159536917
H            7.57010759012233        0.32074577289180       -1.76903829230304
H            5.95758551355429       -0.34574262780925       -1.41029854602445
O            7.54172991127264       -1.65342498482718       -1.14112117614390
C            7.49246207821531       -2.22479426420187       -2.43234685147272
H            8.07521824270717       -1.63152864584381       -3.14553327084240
H            6.45918808997831       -2.29799593225401       -2.78892321615701
H            7.92297202259186       -3.21881287557864       -2.33948925281427
H            5.25445433877708       10.28043930949989        1.60355718776545
O            4.65683998351181       12.24228949061123        1.87901130094537
H            3.57659562136803       10.50126108307031        2.15868515384918
C            4.26225596082657       12.45611148547329        0.53973584640265
H            4.86960121912776       11.84646056244874       -0.14326866362919
C            4.44491963369310       13.93569696314290        0.21612881367141
H            3.20686525800184       12.18191552591155        0.39850104862019
H            5.51296001826706       14.19236772868103        0.24227925907463
H            3.92744971343404       14.53764832173791        0.97607572807098
O            3.90390571858675       14.17889326849132       -1.06306050163505
C            4.06114524964274       15.52316770484076       -1.48194149734024
H            5.12402289483689       15.75299540222270       -1.63992608870251
H            3.67017602983488       16.21575906163808       -0.72574422385310
C            3.28824215355877       15.70246902993668       -2.78484309899588
H            3.74918289669469       15.09604207517024       -3.57784150972462
O            3.30212833381300       17.06846041358614       -3.13272362447681
H            2.25638326611853       15.35008255582228       -2.64078839339510
C            2.66520798307891       17.32770874609109       -4.36708610157994
H            3.16530550823675       16.79713197994689       -5.18467683436608
H            2.73744027595477       18.40107588614472       -4.52502081238569
H            1.61255012026184       17.02534407829508       -4.33668485551417
O            5.75255756748825       15.49045238870213        6.81624746249846
H            6.49983452352800       15.12980388583332        8.64049645873452
H            4.72009453443178       15.08734598154973        8.56286608267832
C            4.55005802859295       15.56688656300068        6.07215331638656
H            3.78143757491383       16.10188110546034        6.64900991181633
H            4.16589703241304       14.57416495201248        5.81034568867893
C            4.84623333012650       16.34307547314519        4.79322160454178
H            5.29470806444920       17.31333025513715        5.04961353332603
O            3.63270419627622       16.52663982992921        4.09486530604014
H            5.56339867699924       15.77954113156595        4.18160722502595
C            3.81398935919394       17.15929648280600        2.84578106658787
H            4.24514479813927       18.16127791816543        2.97759148002392
C            2.45818677193297       17.25961549205445        2.15317175959241
H            4.49713390252442       16.57338692513626        2.21425639419250
H            1.81762347694093       17.98042640794724        2.67987190595029
H            1.96527218664560       16.27631952597197        2.18619882425439
O            2.67665498352161       17.66563729265775        0.82127281810131
C            1.48195785676675       17.87018801585419        0.09329363144506
H            0.88963221392011       18.67834302507209        0.53500462702174
H            0.87877208229939       16.95607718385794        0.06817269820413
H            1.79142672715212       18.13761907695501       -0.91463890892910
H            6.89308320746250       13.70276511866369       12.84791627031419
O            7.01367655054868       12.54809495402425       14.56084661579857
H            5.34216429967335       13.07882394504714       13.46490319266097
C            6.95716266401106       13.63207570327243       15.46463486272493
H            7.40791029766071       14.52946274593422       15.01887187676403
C            7.71768791188625       13.24394646413598       16.72887162608031
H            5.91463950479646       13.86381945686597       15.72579106880893
H            8.78303298993636       13.11071174337491       16.49502107442263
H            7.32641262444958       12.28971094426495       17.10824131132675
O            7.53934211550968       14.26744360543304       17.68209309424349
C            8.23238910117314       14.02125648447035       18.89283898691594
H            9.31800673619035       14.06348892308042       18.72809808041310
H            7.98501997627821       13.02776675335682       19.28793400619600
C            7.81272922328852       15.08955935089280       19.89783925557660
H            8.16767084313815       16.07514859068189       19.56387118764550
O            8.35866477947803       14.76597781314485       21.15670562591779
H            6.71451787986563       15.12083238883828       19.94904293143285
C            8.07638202793209       15.73757270009877       22.14295986424013
H            8.49682201747055       16.71058391377369       21.86610088016020
H            8.54073616349059       15.38241340889443       23.05969104431907
H            6.99591559536813       15.84503518257635       22.28956502143978
H            8.44615897985124        5.32555491038493       13.10512389527361
H            6.81480719685925        5.41921291830991       13.79488835317832
O            8.26766317456455        6.64657188172187       14.60439308946825
C            7.33835618881470        7.24736802571457       15.49036742612783
H            6.71611773885706        6.47471742716654       15.96488464519903
H            6.68342991022323        7.95864123897806       14.97490834187657
C            8.12975465719422        7.99011731653705       16.56177392955080
H            8.82139977979011        7.29544369382565       17.05955020665117
O            7.21736768050318        8.52896681773104       17.49379949580819
H            8.71864115642584        8.78755562041451       16.08918659735066
C            7.83926804562816        9.36677719844749       18.44551335993246
H            8.59258571532922        8.80980536882299       19.01959957568349
C            6.76545011283580        9.91411050187475       19.38125437155159
H            8.34189587552968       10.20745588018509       17.94606515934892
H            6.38131612013796        9.11136312993867       20.02556490435656
H            5.92915461316006       10.30004673369558       18.77932929431272
O            7.34172487695418       10.94146158819329       20.15581370574372
C            6.46652041468801       11.46228034917827       21.13676938445521
H            6.18965089236679       10.68960333963285       21.86163789037344
H            5.55759731050169       11.86338261528765       20.67539228991739
H            7.01549231617185       12.26089282528821       21.63089335783406
H            6.98691085332075        1.79578409730390        8.14314386653795
H            6.01482598448213        2.18004620263291        9.59320388884175
O            8.06187867414383        2.05053041919522        9.80836384722143
C            7.94316235552927        2.21838593690108       11.20871211310079
H            7.53476833254870        1.30323111080417       11.66066965822336
H            7.28364496547425        3.05326322309941       11.46240494024430
C            9.32874198429365        2.51504197196062       11.77551653197116
H            9.98377780072763        1.64311117521915       11.64513405775893
O            9.19496230737518        2.83830408910552       13.14532819821183
H            9.75418551592653        3.36281715147802       11.22143574113783
C           10.43527345574067        3.13783798552201       13.75446260730862
H           11.07019319710556        2.24103383883490       13.79258535732712
C           10.17499284644708        3.63227821407499       15.17415195467286
H           10.96596378195133        3.91177729353979       13.18341614521842
H            9.52717744505792        2.91118088707405       15.69451613405973
H            9.66251120893312        4.60348313788322       15.14320103229339
O           11.41648645046474        3.74944587582467       15.83483840665838
C           11.30320517119919        4.33885106118327       17.11291749882529
H           10.66049726239377        3.73853727443469       17.76649329004595
H           10.89122132283715        5.35131692597968       17.03755186666406
H           12.31131227937398        4.37759159087638       17.51848234963270
O           -1.28356470877613        3.93627609183834        3.24461944203006
H           -1.16300183471588        2.81295858339373        4.97784881682923
H            0.38501265263536        3.44528864713332        4.36306385391035
C           -1.22201148352961        2.82956898725261        2.36905466931456
H           -1.67414953995475        1.94358936968409        2.83563767049154
H           -0.17806778466291        2.59171048197395        2.11911680563855
C           -1.97582270844568        3.18439670333483        1.09125198582136
H           -3.04394459871249        3.31431276317944        1.31382939233163
O           -1.78224022536350        2.14289189452588        0.16081439603900
H           -1.58876508987029        4.13357995577893        0.69521950831516
C           -2.47800443951307        2.35295502453475       -1.05525852788901
H           -3.56295124393270        2.29749127228232       -0.89005756829217
C           -2.04158207283669        1.27095423370106       -2.03817147363912
H           -2.24606985438577        3.34168014918438       -1.47101807184643
H           -2.38249262651794        0.28712165419929       -1.68485240278233
H           -0.94295312412595        1.25465817426284       -2.08809197856121
O           -2.59104134229064        1.56163583790993       -3.30349817508616
C           -2.29483501249080        0.57438599933365       -4.27005142217158
H           -2.70277149319212       -0.39832761782370       -3.97412069574711
H           -1.21289442153342        0.47846135480414       -4.41357541050042
H           -2.76289655582049        0.90508926791811       -5.19404816129699
H           -0.69702733467609        1.43376006558307        9.16762368543298
O            0.03783040051459        1.08948318262705       10.99968622848366
H            1.08287953778175        1.47121720225290        9.25555862591033
C            1.23293142576264        1.02281043515676       11.75731695892054
H            2.01433006047398        0.50017793635334       11.18697303905904
C            0.92904950507446        0.23940788823590       13.03077325557299
H            1.60455279899582        2.01844653747269       12.02592227878317
H            0.56469024424440       -0.76340572006609       12.76706679041461
H            0.14061869524320        0.75435882750721       13.59622680270722
O            2.11567284699075        0.15292655810396       13.79085475954183
C            1.94196961964163       -0.55108882659472       15.00349155331080
H            1.59739470494219       -1.57659151920450       14.80994086673442
H            1.19649142885348       -0.05247311505476       15.63848102147488
C            3.28449035851737       -0.59248265584826       15.72645692783644
H            4.02997625556345       -1.08441990216960       15.08491238998216
O            3.11774582039594       -1.30334681350301       16.93208853040880
H            3.62655879745105        0.43400882543453       15.92249561408951
C            4.30913048385695       -1.39975950336128       17.68525282814447
H            5.08804911552882       -1.92424204595842       17.12094062993639
H            4.05598988189937       -1.96449274849592       18.57913451461740
H            4.67834977518745       -0.40662397844565       17.96374805322974
H            2.24154200270123        5.88113427118883       15.40030619600958
H            1.14739127893722        4.47640681129283       15.53145664213643
O            0.45418472636900        6.14834835526315       16.39296731509467
C            0.88858951297605        7.43119213134138       16.79785929766750
H            1.24275859525280        8.02637522856553       15.94962977097742
H            1.71093133990477        7.33956933443564       17.52219826076188
C           -0.29164301967418        8.16047582924202       17.43309169860972
H           -1.12934993910479        8.14863075573268       16.72163079060367
O            0.11326809112477        9.48482833923535       17.71453627709094
H           -0.60471276994563        7.64546557983300       18.35105561785467
C           -0.91893390139016       10.27887832550448       18.26312482385739
H           -1.79535596033281       10.28879815840471       17.60000832417575
C           -0.38202851539268       11.69761075523131       18.42562283591415
H           -1.23362041773193        9.88328648590564       19.23902645919505
H           -0.05024380168787       12.07680558610901       17.44868871844320
H            0.48207951359595       11.68152669236750       19.10471451051338
O           -1.40731797526363       12.51362050252963       18.94876537467009
C           -0.96506849212597       13.82666013060812       19.23228165746699
H           -0.58940721894600       14.31551370130050       18.32703977305800
H           -0.17309971950076       13.81446796183493       19.98869230546987
H           -1.83093055251167       14.36333408821732       19.61230669850330
O           -0.74979935168113       12.31969002125941       14.88584330706620
H            0.90635449921005       11.20513634855105       14.92446710844622
H           -0.57554175396171       10.30846763228823       15.31723843791492
C           -2.16468238464692       12.31982342153493       14.80054257728493
H           -2.56855162175742       11.34401860917845       15.09384031048214
H           -2.49040665690182       12.53971964309799       13.77618666647054
C           -2.70782148143894       13.40235842334889       15.73187865774764
H           -2.54380898856014       13.11940000812942       16.78042669702173
O           -4.08831818283668       13.55036065874504       15.47178999181087
H           -2.17617737548129       14.34386554470940       15.53259054465959
C           -4.70371578940123       14.50958825699974       16.30635512139083
H           -4.63014315290146       14.20786509523338       17.36033108110121
C           -6.16993669183051       14.61996968996103       15.90120798030133
H           -4.21884621613677       15.48930579856736       16.19256060152204
H           -6.66300836536280       13.64677178621375       16.03797159243003
H           -6.23290298749473       14.88855652886719       14.83660779550045
O           -6.78093114211155       15.60646684633572       16.70135975327688
C           -8.14749286911030       15.79426522968929       16.39652111204190
H           -8.71552936270372       14.87142457475043       16.55766771865708
H           -8.27641327550133       16.11482679102085       15.35684165295692
H           -8.50338514485658       16.57015777750276       17.06988520979343
O           -2.63234128378332        9.72647406239312        3.14343436859422
H           -1.25123063454612       11.12306910905048        3.79345404600623
H           -2.87937045720172       11.16339230974139        4.51861826488605
C           -1.68758048692807        9.13537840983119        2.26915687469006
H           -0.98724652339832        8.48314590006012        2.80315889777325
H           -1.11402945162261        9.91604469746281        1.74812537361656
C           -2.46499188943169        8.31476789341613        1.24520887672841
H           -2.97368241221445        7.48469102593164        1.75337367883407
O           -1.55906089813005        7.82567908205272        0.27907960543930
H           -3.22669445122128        8.95137496370299        0.77293029111292
C           -2.17863850166377        6.97648440660206       -0.66399417975183
H           -2.65078677699780        6.12217726611247       -0.15810557927255
C           -1.11233799538303        6.45804005502452       -1.62452924092095
H           -2.95741407652712        7.51715130605994       -1.21959220712337
H           -0.25503662260223        6.08885252379002       -1.04190194236939
H           -0.76003422879833        7.27156295269542       -2.27348175378458
O           -1.68104469265504        5.41991288378927       -2.38999392152366
C           -0.81171573896552        4.91374205306977       -3.38396835616274
H            0.11323990510607        4.53371759195321       -2.93680436496253
H           -0.56377240492557        5.68887219359990       -4.11658746277023
H           -1.35188080014838        4.10106818036778       -3.86465747312037
O           -2.24903415477272       14.53311414568073        7.79895979925067
H           -0.19537999975840       14.44514147656365        7.92662793594333
H           -1.03928229760135       14.98261010864299        9.41009938024526
C           -2.24317599432057       15.77363449208546        7.13023253834882
H           -1.39343252078125       15.83813666024518        6.43444241173715
H           -2.16598590050041       16.60281162721394        7.84801217856655
C           -3.54586812914309       15.87904276868785        6.34416512063727
H           -3.65851643267037       14.97790198550270        5.72555709821748
O           -3.49688803840802       17.03900460942741        5.54185347075500
H           -4.39597058796068       15.92235502434695        7.03852854535415
C           -4.66167661531142       17.21362951833417        4.76089587141557
H           -4.82222079006668       16.34584191717641        4.10612013948341
C           -4.48419542071652       18.46814386650784        3.91174593793728
H           -5.54566982794154       17.32423323349934        5.40440912690151
H           -3.59187047620973       18.35626622722056        3.27866986217199
H           -4.33282331071574       19.33659477851781        4.56869045022075
O           -5.63903258657149       18.63613260906088        3.12137522060943
C           -5.58493730976374       19.78746713493749        2.30371409308819
H           -4.74029999676513       19.73500766895563        1.60799137790479
H           -5.49235684553710       20.69471269688705        2.91059919902014
H           -6.51932177868540       19.80743559915710        1.74835927945368
Br           2.85942942856776        8.29992487695062        8.82498211627213
