293

O           12.33566309155119       22.49945724101731        6.69291609863588
O            7.76462696918621       23.83460210357922        7.51441176311287
O            5.74652132382432       23.14220108710229       11.70554258061368
O            5.61808684676719       20.82744906153966       15.86681074507850
O            7.86972274054146       17.68114733013311       18.53256665719630
O           12.45677168029612       16.38290344473934       17.73759589020810
O           15.06949005064128       18.13283702483222       14.25084801401755
O           14.85538407239136       20.53738548323836       10.14507359856598
O           10.88418508878947       17.69240583700277        6.58465020773539
O           12.39910877098534       16.67603027044940        7.97713357517843
O           12.45646069019223       14.35258889397419       12.10440460098443
O           10.97165365373264       13.72363360138218       13.74587630244452
O            6.47718534988468       14.99863164485727       14.51713985103690
O            5.10879325215488       16.44143307997121       13.36578747151663
O            5.10800302206875       18.78018355544349        9.24276720272680
O            6.40126040778908       18.99420539598682        7.35936150902665
C           11.06827173365716       22.83295178128311        6.27269115669056
C            9.98512792899538       22.92157590656664        7.14252630899536
H           10.07541606385042       22.59699130956642        8.16993692193935
C            8.80439419710031       23.49603678443503        6.67966017138046
C            8.68489576957906       23.90139160754417        5.35477138165007
C            9.75336740185221       23.76466571896196        4.47923669355119
C            9.60890807967611       24.16199502138045        3.03154698176950
C           10.94851407961549       23.23599356105839        4.94710578591722
C            7.22590187320410       22.94551485352750        8.40166183009321
C            6.75748741693284       23.45413352562784        9.60542129232892
C            6.13307476241525       22.60318599267771       10.50968367933083
C            5.96991936040753       21.25991270329926       10.19961264305316
H            5.51587752431407       20.58336900334896       10.90414426312101
C            6.42346887739898       20.77199142495518        8.98678198458748
C            7.05763979115011       21.60287785181078        8.08215047299475
H            7.40613252397288       21.22047611225602        7.13640111830214
C            5.04907388816043       22.34145658819959       12.59271345639976
C            5.66432514571416       21.98738320239346       13.78564043830853
H            6.66952388971786       22.31468565981337       13.99772240126270
C            4.98332994977088       21.18146226258422       14.68743868866514
C            3.69163869597847       20.75119059492294       14.41414719346688
C            3.07084503692989       21.12346445482964       13.22668355690194
C            1.68163962121112       20.62764962912823       12.90991902072743
C            3.75811967850775       21.91225014470483       12.31093540111742
C            6.06493846378132       19.54229802129206       15.99768757293027
C            6.74618278553599       19.23028536310802       17.16843079012354
C            7.27210572706807       17.95621784492646       17.33428011416887
C            7.10935336575943       16.98692988923830       16.35093215497654
H            7.50454509493306       15.99414096066388       16.49591923064464
C            6.41598178321027       17.30789666044582       15.19752287583432
C            5.90048869256762       18.57842384357475       15.01175863436559
C            8.92642530416995       16.80777762610127       18.64924518711312
C           10.09537245384017       16.93526432473881       17.90331936389693
H           10.16286192378318       17.65986861125877       17.10435985124375
C           11.19905451410566       16.16220185044985       18.25351078408753
C           11.11235492499705       15.22893699527380       19.28071473519939
C            9.93123188425493       15.07610967504012       19.99380881212029
C            9.82702663937891       14.04138247309650       21.08592881404597
C            8.84133896216215       15.87518581490308       19.67731258877633
C           12.70896013343806       16.41333513257797       16.39570357618972
C           13.73542686630699       17.24348428788782       15.96599648714401
C           14.08589105223558       17.25879248289465       14.62120666053978
C           13.42055387525386       16.43896792482749       13.71940825391508
H           13.66427457567536       16.45451802863934       12.67057443284637
C           12.40957784260439       15.60549873092256       14.16389136879788
C           12.03965047351705       15.58987501737285       15.49723050894268
H           11.25756199751949       14.93205722320705       15.84137698347047
C           15.39934245613847       18.21791536155072       12.90847641712515
C           14.96978489454700       19.32497942697592       12.19006110447567
H           14.37635955657077       20.08828137696001       12.66710007813768
C           15.28817043530141       19.42455446546444       10.84280614678524
C           16.04503196862316       18.43830001700460       10.22267936567853
C           16.49241001338565       17.34186884236674       10.95097289666903
C           17.29088746348275       16.25604393720740       10.27336460867846
C           16.15814765329546       17.22924843693642       12.29617401862219
C           13.91206807310686       20.36979159924213        9.16939604199627
C           13.57501874144215       21.49097901762251        8.42018260371730
C           12.57908289372781       21.39427501887777        7.45848282088599
C           11.93082614791953       20.18654450710763        7.22432184326895
H           11.17377358455637       20.11393135095773        6.46027073195560
C           12.28590011970244       19.07755020350750        7.96934067636767
C           13.26294510914251       19.16336932509714        8.94570524278363
H           13.49360962900654       18.29471060099142        9.54032641509526
C           11.53600580263983       17.77301559155798        7.82133972821978
H           10.78440000477391       17.76239656485730        8.63458712795569
C           11.86671334398647       15.62468228222415        8.72696788311324
C           12.36591702989197       15.45581255180708       10.00698814023589
H           13.11818133307761       16.13359461220002       10.37947957912249
C           11.89615157053837       14.44500876053092       10.82750557721150
C           10.89869811656641       13.58232321636762       10.37062588745864
C           10.40004897196949       13.78857632882292        9.09232281295200
H            9.61149090461197       13.14868558039734        8.74299505714257
C           10.86697702754672       14.77995868811352        8.24294960809650
C           11.62830098822978       14.80977172633048       13.14166086974305
H           10.88187029055287       15.51253399196924       12.72100971541864
C            9.64087520707265       13.63119062467462       13.34530699034216
C            8.69022801473688       14.23538911038731       14.14511479379151
H            8.98675481786911       14.72348694827915       15.06057541964755
C            7.37162612199709       14.27421625528211       13.73514284622575
C            6.97990886615867       13.70506216824171       12.52403192673921
C            7.95549919927753       13.10304320455929       11.74283007569498
H            7.67636181627121       12.69586308872258       10.78813629614175
C            9.28771273188621       13.05148489411031       12.12883405600001
C            6.32431119472406       16.31992018608685       14.05605387122726
C            5.22310171943978       16.35955664632361       11.97481413997341
C            5.12615857879284       17.54190289832025       11.26251656050762
H            4.99626134898517       18.47283786212811       11.79117550013157
C            5.22112163951845       17.54384412450010        9.88166167867575
C            5.43312029212090       16.35271374329699        9.18573285835356
C            5.56502459206984       15.18573627383465        9.92509336658092
H            5.78072382103928       14.26825301496385        9.40783006275149
C            5.44064299504169       15.15260657345970       11.30732992329339
C            6.31097616977414       19.28665089336874        8.72809275444932
H            7.16316370563254       18.82121182727183        9.26023038489007
C            7.29337290647178       17.95231761933590        7.10666651259885
C            8.60386718746516       18.28994291273310        6.83466114027526
H            8.90092274323431       19.32648671762367        6.79938177684085
C            9.55323136507938       17.29410971830180        6.72021892346932
C            9.21040362315436       15.95054149240919        6.85907741393839
C            7.87933067714958       15.63933166572051        7.10607598964700
H            7.60364471116709       14.60991537198377        7.25264591561699
C            6.90685830709676       16.62032985050881        7.24823461627205
C           10.33327061340079       14.93282564131144        6.83102420701166
H           11.14463558764576       15.38215021515908        6.24466365221807
C           10.38137613817458       12.46735845745685       11.25983338158019
H           11.20429193409164       12.18965149648311       11.93012021552757
C            5.53540166369954       13.86077371370635       12.09507260011202
H            4.96943693208907       14.01176466411990       13.02114940041616
C            5.47777364264304       16.34976839583230        7.66985740752922
H            4.89382406301128       17.22155447839231        7.34933327528757
C            9.95584811995762       13.59106725985155        6.19613513797171
H           10.80463175679954       12.92066819866023        6.32860605240862
H            9.08887962924737       13.17084676521418        6.69650422194561
C            9.64964708677562       13.75786535240805        4.70582987452234
H           10.49425563083567       14.25496044571519        4.23053352500068
H            8.78063740053730       14.40572837120627        4.61034556105929
C            9.41443921571351       12.37644682752060        4.09078947606233
N            8.88935703131330       12.37143819251855        2.69883911872082
C            4.84104282913238       15.09328094426915        7.06704415231359
H            5.49490388561212       14.23529426620687        7.18518797165715
H            3.91703398956164       14.91095050832728        7.61423983032324
C            4.51540437057513       15.30118690042917        5.58539689670449
H            5.44646052775229       15.43438935913147        5.03828871668061
H            3.93684331195114       16.21861663031134        5.49341971376839
C            3.71733655096604       14.09859193531339        5.07630309816850
N            3.12696053604189       14.23473086976735        3.71725448422498
C            9.91634972389766       11.21986508278659       10.49698035819075
H            9.10861794868090       11.49065533208293        9.82464660570974
H            9.53494224793318       10.53200736321901       11.25118179357527
C           11.06663249198387       10.59301809274144        9.70139680531227
H           11.68961119956138        9.98672892413573       10.35646060566655
H           11.70266650925542       11.40419688775268        9.34202405406872
C           10.65375011762072        9.81729115175138        8.44819900068044
N            9.92569586338741        8.52399984798261        8.62170044848792
C            4.98714217731480       12.62258000010033       11.36975934181180
H            4.95157860136734       11.81718142625367       12.10356384205005
H            5.66975413783310       12.31892175683577       10.58243608609683
C            3.60503952766532       12.82015727654155       10.73945812994502
H            3.69608197635851       13.54091816528815        9.93160321423849
H            3.30078688069317       11.85494056722464       10.33856893148702
C            2.58705299041602       13.32414895695790       11.75918476635487
N            1.18840307740380       13.40626187647474       11.25207386218612
H           14.25195115286102       17.87745168089257       16.66724352660939
H           14.07652492539367       22.42849675456798        8.59378638377534
H            6.88826308840287       24.49668767056639        9.84344492495385
H           16.25646540862146       18.53610497863237        9.16922470115814
H           16.45775087115396       16.37337890505660       12.88059164127462
H           11.99056488297381       14.64560748195954       19.50399339698425
H            7.91131387779309       15.80689400162267       20.21751424329647
H            3.20072267240458       20.11117514466567       15.13046482956010
H            3.31907161000391       22.18782802730777       11.36471624392365
H            7.74558398600714       24.32813901392368        5.04354434574527
H           11.81243814260448       23.13078141026103        4.31161849912331
N           18.76908268395091       16.45790109373756       10.31427043399832
N           10.20821791949347       14.53181549678934       22.44311283327213
N            0.58295587636984       21.52800122272370       13.36802817617957
N            9.98163738704839       25.57638928659590        2.73530544890119
H            7.15588675430762       16.57730739328777       13.37102526959403
H            6.87502462968631       19.97559212801300       17.93556027666073
H            5.39880940058848       18.81084113171161       14.08810266923475
C           19.40373141970690       15.32665409587488        9.61503263092250
C           19.24817333849828       16.49422846444753       11.70458227709783
H           18.80463327876242       17.33241917155889       12.23621318182042
H           20.32943795883409       16.60812859939660       11.71979101055458
H           18.99050144754251       15.56999008046959       12.21568133147073
H           19.07197335963260       15.28763453793415        8.58063517228882
H           19.15202597155202       14.38979854989774       10.10553468715178
H           20.48459839899525       15.44334826042567        9.62755225018079
C           19.13888937795589       17.71047897309934        9.63738593342530
H           18.79964252285527       17.69399128160818        8.60474966812128
H           20.21970602429428       17.82914062744247        9.64529165050339
H           18.69394519020172       18.56150279107922       10.14697693941486
H           16.99127371250672       16.19965426587625        9.22590230881191
H           17.07108844333805       15.30303977163716       10.75672685959009
C            9.78216710298032       25.80866939566765        1.29427428963761
C            9.13067483629376       26.50445403479340        3.49549967001605
H            8.08457408091257       26.34325123406480        3.24787220189196
H            9.38989303774139       27.53100799083701        3.24774245592402
H            9.27342058286061       26.35808184460291        4.56308224495877
H           10.40973786201082       25.13879171730342        0.71177559635130
H           10.04567548725223       26.83316714947747        1.04286704836576
H            8.74206956924226       25.64423502206607        1.02411782216691
H           10.24440685078740       23.51739919063326        2.42305657867184
H            8.57022749949747       24.02336652721780        2.72915434064510
C           11.39241332093849       25.82086730751901        3.07190034549446
H           12.03487883457107       25.14766335481183        2.50993609339606
H           11.55793063987397       25.67026634826734        4.13560176983677
H           11.66080280533855       26.84411369189525        2.82014390884241
C           -0.70011179302097       20.90936120755689       12.99023922069500
C            0.62607331104273       21.69386222634343       14.82902138859770
H            1.55977909083659       22.16233162398462       15.13027628267903
H            0.53577615295332       20.72870408125907       15.32098303078249
H           -0.19669514200842       22.32601805758432       15.15438189737507
H           -0.75590761318375       20.78551222245320       11.91188018471497
H           -1.52427656791993       21.54363386876594       13.30731786985057
H           -0.80741653474467       19.94044600007602       13.47077939143477
H            1.53760071364612       19.65892468025121       13.38996372861805
H            1.58802538372699       20.51203120471087       11.82929173997582
C            0.69097982548658       22.84541709475637       12.72282249001839
H            0.65027859299896       22.73966802085716       11.64168507589477
H            1.62485429577778       23.32798640117489       13.00031557930163
H           -0.13217622286251       23.48139935017254       13.03971634758529
C            9.33501970693035       15.64136306576927       22.85552387791644
C           10.05185967200290       13.41645093448752       23.39273949562800
H            8.29685116129800       15.31910018376966       22.86296369873135
H            9.44548465855531       16.48085339753736       22.17395903764848
H            9.60233816083158       15.96865400229098       23.85738614404583
H           10.69545158262335       12.58623193883643       23.11252913779730
H            9.02029520458628       13.07357460003925       23.40867400507225
H           10.32351775572106       13.74061734057190       24.39441423088484
H           10.47844908026237       13.20148642465056       20.84105571875362
H            8.79742117300038       13.68531944446494       21.13896625323900
C           11.60821755179470       14.98264682224956       22.45590529863478
H           11.74185329449583       15.81671528152282       21.77180468074168
H           12.26751726375570       14.16948045441078       22.16278431501864
H           11.88297238214170       15.30602896031496       23.45705996831400
H           10.36097957075870       11.83486244750588        4.09367811952983
H            8.69876487724290       11.83081134639152        4.70636104375122
C            9.71954716736530       13.20376919557696        1.81475374759833
C            7.50050126968585       12.85876274978783        2.67785168953706
H           10.76202443669693       12.90028169629460        1.87726641436726
H            9.64018549645635       14.25179336788255        2.08900538557141
H            9.39479207789911       13.09172135461373        0.78264667810310
H            6.88885524046634       12.20996976291358        3.29931467420473
H            7.12470458001597       12.83929566937467        1.65734374373794
H            7.46079596169150       13.88001590803848        3.04515167030056
C            8.90780650490116       10.98082958703676        2.20777213839999
H            9.92699734380510       10.60441977576780        2.16506557369975
H            8.49014299813330       10.93016972265274        1.20490257306809
H            8.32151097281408       10.34014364229762        2.86120942612528
C            0.62178735812925       12.06157896719679       11.05404882964220
C            1.13535725287251       14.14930490017746        9.98161016834750
C            9.95140350045258        7.82747107448400        7.32072135019675
C            8.51666863719074        8.73768892401972        8.99380955313084
H           11.57114762911143        9.59359502011691        7.90282846636348
H           10.03051152643692       10.46118587937879        7.82770566712481
H           10.97193390384685        7.58153800899245        7.03735894465342
H            9.51076387111743        8.45656902022730        6.55284042556560
H            9.38771259582150        6.89958466969739        7.38133288046957
H            8.44592144222518        9.19631052591756        9.97314919646396
H            8.00083588985648        7.78074712659696        9.02998207069048
H            8.03149715280518        9.36732703324931        8.25436440621240
C           10.57560849188996        7.67523172886938        9.63014349502416
H           11.63304157829307        7.55738612372273        9.40396421545400
H           10.11633880957472        6.68915046730687        9.63919678953335
H           10.47192770840083        8.10778150936149       10.62113290765109
H            0.62237500501538       11.50888350262794       11.99064641898249
H            1.19704466837537       11.50772382025383       10.31889315713909
H           -0.40508819089808       12.13892009577478       10.70459695169037
H            1.67861784688548       15.08656087032621       10.07814643530879
H            0.10003673640506       14.36496420780739        9.72854816188167
H            1.56948423300116       13.55169012891347        9.18680270714621
C            0.38141632320337       14.12013136252815       12.25624451965434
H            0.44013130960299       13.61682561951128       13.21890740735789
H           -0.66160071312466       14.15041838486385       11.94942401898848
H            0.74506892182270       15.13818135874573       12.37237053457697
H            2.87905445277568       14.32574556185559       12.07898730016825
H            2.58953732383993       12.67307059828700       12.63499084089455
C            2.41839780809817       12.97885939087464        3.40693272303532
C            4.17797594183493       14.44851433417658        2.71095656404532
H            4.70909474328521       15.37435541891662        2.91039808567178
H            3.73488046297569       14.51732417942205        1.72016177504605
H            4.86957455233606       13.61222339903647        2.72491230277242
H            1.60934638909909       12.81452350720613        4.11426613388961
H            3.10210106904061       12.13532913341682        3.44876406896571
H            1.98919927850814       13.02491422914022        2.40887663315851
C            2.16231629788413       15.34473050962010        3.66665877508062
H            1.41700483023135       15.23555232473547        4.45046850657772
H            1.65095360295479       15.35042797176904        2.70661189618744
H            2.66587075283687       16.30002049227140        3.78307914912527
H            4.36130844519548       13.21937106418422        5.06990214562979
H            2.89246707740141       13.91563187273725        5.76578680577316
O           10.38349914386913       17.30795035168904       11.45021526307372
Cl           9.15675151802213       17.70925335462041       10.84799348051122
O            9.34458146544245       18.92554644843757       10.12460655437496
O            8.16149058475224       17.89293445688997       11.85254689366953
O            8.71978431598762       16.69401784816526        9.95171299419043
