391

O            2.76189342731050        4.11559574604318       11.84900768132539
O            8.59601164443626        5.37622021272052       10.41189597603152
O            4.27479500691386        4.02649564367807        6.50881799717309
O           -1.58140209761393        3.30992769823204        7.65273257968645
O            0.78808577782639        7.65807790530135        4.23280032511661
O            6.60148945344103        8.45725544234435        3.10465283250294
N            4.41782374879947        5.70734427489932       11.86739471382786
N            4.18028265046266        4.42691162586885       10.07148975525847
N            6.67245356358771        6.35473122865597       11.20087541428106
N            6.51678118047254        4.85844654739794        9.57283382123624
N            2.71035319698868        4.17822710203153        8.18013446057771
N            2.23299737891569        5.03304073189776        6.19302799372938
N            0.35458708064314        3.98859165822627        8.69178611890858
N           -0.13139296068198        4.81058563170784        6.69154077086797
N            2.87403484830310        6.90366964927431        4.81935428199554
N            2.52586480971118        9.08921251244132        4.68580942991567
N            5.25323496121409        7.24094790224722        4.51437191938000
N            4.90103467314908        9.41821898110686        4.31600673005219
C            3.68890583229253        4.69594176772196       11.31221081958459
C            7.38770243513438        5.50501187313578       10.40198622106973
C            5.27735493284578        6.34896341513149       10.88662134393364
H            4.91672639152669        7.36798927751995       10.68275931722195
C            5.18451871514688        5.38740964162027        9.67295639742539
H            4.88383860264382        5.87483454216686        8.73344056649064
C            3.18589665110456        4.38300974252665        6.91949531418285
C           -0.55465553801042        3.96040274720005        7.67266276619564
C            1.45451398610727        4.86361303287410        8.41157629101490
H            1.57457101763217        5.62027569894608        9.19971537786779
C            1.11327870485896        5.44634073741427        7.01420117193423
H            1.01323147970876        6.54103261835281        6.99190860112974
C            1.94533514117836        7.86371763757700        4.55458552116001
C            5.67302233185038        8.37766757179615        3.88585153866437
C            4.10493877375443        7.46768539006064        5.34032552831823
H            4.27856373928662        7.11344267626676        6.36599799591706
C            3.86991439374252        8.99741467999342        5.22032327636130
H            3.93408794872825        9.54317827000220        6.17216305847988
C            7.30174984545465        7.13265473213754       12.24560126073770
H            8.15918166391742        7.66377791865026       11.82265969107616
C            7.80637109183869        6.20807593184109       13.37034841161382
H            6.58332537451292        7.86087291265150       12.62154030336974
C            2.50962326370780        5.51047445507391        4.86247953093179
H            3.33013143738681        4.89710135513944        4.48390369866499
H            1.62108552780545        5.40964966889729        4.23530461886592
C            3.51228579020424        3.51781729851372        9.17386258462675
H            2.88886857453069        2.87403104083336        9.79760406515911
H            4.25049271923938        2.93416402695471        8.61899486836864
C            4.04866518731779        6.24777750918463       13.14894547949961
H            4.94016997001379        6.53161657872066       13.71186069781992
H            3.50167857035570        5.44984469232835       13.65700129860545
C            6.94778869587516        3.87691524136829        8.59947646877552
H            6.30050622923072        3.94989680948514        7.72297969880976
C            6.93712249836971        2.42893666435138        9.13012656539464
H            7.97516405116303        4.12731652991827        8.32401003719539
C            0.10867427483777        3.34704476610849        9.96656166526452
H           -0.87938728418412        3.64129550497407       10.33258634335292
H            0.86387038586581        3.68824478694658       10.67506912193870
C            0.13850794022253        1.81172294128334        9.83119459309140
C           -0.87327868449060        4.99301355421984        5.46452483049230
C           -0.74868716254755        3.76268360937369        4.55861079988125
H           -0.50739412082561        5.88311548836924        4.95148025565118
H           -1.92761256536736        5.13673566752565        5.71305927891228
C            5.90830347030710        5.96667404228809        4.32034785696616
C            5.68250651567821        5.43084450131314        2.90163336580773
H            5.52950619110192        5.25111624316027        5.05126683544505
H            6.98184637093761        6.09627020264605        4.47760514275048
C            5.10857573832801       10.76962922019055        3.84650020528713
H            6.17437721684214       11.00088363560783        3.91282111411390
H            4.55679081015700       11.46128559153892        4.48392158082194
C            4.66532256374207       10.92159512808107        2.38675291614563
O            3.09142139917788       12.40384061579761        5.93214452510897
O           -2.80698055003532       11.47928052385042        7.15850999167250
O            1.46836975875290       12.55011464668479       11.22313048032948
O            7.34050276993739       13.17548525143367       10.19604357761644
O            4.89679635176398        8.91051612600344       13.62291683438150
O           -1.11065493419660        8.00438540771666       14.16957848513106
N            1.39821058695435       10.85461219127837        5.87427976451817
N            1.60920768154442       12.14316907188524        7.66519484928165
N           -0.91946211581959       10.40220842105808        6.41957727462731
N           -0.74783897233072       11.77907875651054        8.14865134246967
N            3.05610167879628       12.36988714877337        9.57838025969413
N            3.47277476197230       11.47958141144335       11.56395578325123
N            5.42383578204759       12.51749605483071        9.10954156950151
N            5.84996713128288       11.69248762961671       11.12192603192813
N            2.81914560982463        9.61153419354853       12.93907417878389
N            3.23274054248490        7.43338349886414       13.06581434646131
N            0.41313636691632        9.22886489364427       12.96461604665988
N            0.85007221542879        7.09499530084074       13.37744734252558
C            2.13241997177084       11.85066496151171        6.44152377805801
C           -1.61540625261792       11.26156056789982        7.22928357849284
C            0.45088131899427       10.27679227604167        6.81044537460227
H            0.71466727834752        9.22830947100301        7.01111805451923
C            0.56649805825600       11.21188031195310        8.04248720289538
H            0.84595561125055       10.69893966586491        8.97506784140457
C            2.55436800067108       12.16601977406666       10.82753874611041
C            6.30706482041082       12.53720147868868       10.15083409754621
C            4.30343962414035       11.66199430164175        9.36535326910965
H            4.18307323519591       10.91320485570971        8.57019464345354
C            4.60923086674115       11.06652881916166       10.76618647354573
H            4.70228731449511        9.97068643572341       10.78144414220554
C            3.76447214739463        8.67626744777117       13.24099976051774
C           -0.05244648895120        8.09905106731198       13.57778558247496
C            1.66021794403173        9.01209354451182       12.29935999945293
H            1.60404087481324        9.33275027430610       11.24907869722067
C            1.90899772624191        7.49234378191638       12.48996609382218
H            1.87748043716376        6.91025863101301       11.55642430791540
C           -1.58739638183915        9.56279448489860        5.44792456881020
H           -2.44704805250050        9.07902564191221        5.92133537880136
C           -2.09779793358438       10.40000060424430        4.25937812198291
H           -0.88929656462815        8.79593532931645        5.11190562329434
C            3.16567213551800       11.00994162320273       12.89085121976000
H            2.32849149131476       11.61770758832259       13.24181266852931
H            4.03317593101337       11.12692675069922       13.54459624260257
C            2.27970948642374       13.04136560289922        8.57037209859794
H            2.92571891099478       13.67019157762670        7.95448578777697
H            1.54496442095606       13.64259756228436        9.11031057725386
C            1.75137611910344       10.30134277833205        4.59412689101379
H            0.84703881154818       10.04547499421757        4.03737084846523
H            2.32455304130413       11.07326438272976        4.07556614325251
C           -1.14423813524216       12.76296013649876        9.13137505353955
H           -0.48056839586239       12.68223621948220        9.99352738967390
C           -1.12664364673424       14.18884098654284        8.57056041425315
H           -2.17269960662306       12.53540917259396        9.42162659045483
C            5.69831334193384       13.17467408988743        7.84894833416919
H            6.69578774890924       12.88659023923198        7.50502444787070
H            4.96304616066813       12.83913615829422        7.11711146498796
C            5.66136026100212       14.70810434298269        8.00216232173358
C            6.57519927845277       11.48533202162285       12.35522168649507
C            6.46937312429097       12.70964928257319       13.27129377421200
H            6.18493211199377       10.60155070789430       12.86045830028042
H            7.62892836598891       11.32097792797987       12.11676995311331
C           -0.27111627519888       10.49657690257358       13.09862656591051
C           -0.18827629035564       10.98605960777869       14.55668100811325
H            0.17309323634996       11.22250752002772       12.41688399776873
H           -1.32036456696669       10.34507967933303       12.82859466813815
C            0.64258779353824        5.75277729139482       13.88025393830341
H           -0.43733433463895        5.59143964705657       13.92545504370604
H            1.09698282372035        5.04657640165251       13.18265424534465
C            1.21579535690158        5.51790075097145       15.29149485870696
H            6.25383936202456        6.03995365161079        2.18788599076336
H            4.61697317402782        5.49802575722190        2.63264251735157
O            6.11327309425975        4.08877716486580        2.86852128550117
C            6.07484664258215        3.52801030944093        1.57203870036760
H            6.68635261126087        4.12010080527298        0.87801760740965
H            5.04498331705426        3.50368951348702        1.19029724978260
C            6.62648110553470        2.10842442409963        1.65343064184985
H            7.65305080803082        2.13861476568911        2.04219149505605
O            6.59958869172759        1.55276227832909        0.35554649864041
H            6.01364282515081        1.51400446738180        2.34437275029870
C            7.13003177047870        0.24326891818882        0.30529195841750
H            8.17456991295806        0.23580795407128        0.64490497862590
C            7.05894611629033       -0.23963280499036       -1.13937592010672
H            6.55364395614329       -0.43344296041668        0.95051797151667
H            7.62781314891614        0.44738175515973       -1.78155687562649
H            6.01237916173149       -0.23772940926775       -1.47491484547072
O            7.59909519177338       -1.54103341890944       -1.20085513721637
C            7.58282250106308       -2.08149383408789       -2.50801197728993
H            8.17725719316989       -1.46634521410294       -3.19129098132096
H            6.55835971059158       -2.15208067324293       -2.88757795727754
H            8.01823249142171       -3.07377531974598       -2.42779831736313
H            5.34169182423156       10.34165969138277        1.74289703169759
O            4.70887016748032       12.28885322153630        2.04449361995398
H            3.64577527417883       10.52778570387611        2.25461921086833
C            4.33715968153851       12.52318772958174        0.70111463068478
H            4.96444411847920       11.93229267440942        0.02057776992879
C            4.50678075270632       14.00965032024300        0.40396379814866
H            3.28807199025074       12.24000083529273        0.53636228676247
H            5.57119260362806       14.27726458688822        0.43887251049877
H            3.97770036208383       14.59265310270663        1.17049826823622
O            3.96922632100618       14.26308886078048       -0.87566491904173
C            4.17029832368226       15.59747865651012       -1.30978953396948
H            5.23716605921636       15.78289302545431       -1.49326358445753
H            3.82266657222819       16.31311072490117       -0.55446120926584
C            3.37552798654012       15.79318376546029       -2.59684962266242
H            3.78735131101835       15.15292565735064       -3.38970988300541
O            3.44524937774656       17.15123490743776       -2.96952767145673
H            2.33208903094389       15.49400735576606       -2.42176305620243
C            2.75692709991124       17.42350872194188       -4.17489049239120
H            3.18154038020053       16.84908489431773       -5.00462129581934
H            2.88158128476525       18.48709129603996       -4.35936654098555
H            1.69312240891983       17.18208867804197       -4.07974748690153
O            5.78788772140970       15.38558668137314        6.77451998871959
H            6.51969769000385       15.01738420975652        8.60295275268545
H            4.73898317430498       15.00964616538294        8.51707455147028
C            4.59141039589180       15.48188543778693        6.02109500686581
H            3.82714381816285       16.02566832654546        6.59466890426749
H            4.19463519508466       14.49646023186688        5.75206277330282
C            4.91020113953345       16.26203377020675        4.75021260979876
H            5.38863151936903       17.21353821650589        5.01981877337932
O            3.70182358786468       16.49378220596161        4.05629148237682
H            5.60677732374283       15.68360432362962        4.12882569640591
C            3.89520478850295       17.21690112318331        2.85804543545265
H            4.29687950221788       18.21664931306886        3.07057927482051
C            2.55321570638676       17.33115745813171        2.14122780532511
H            4.60741547889456       16.69376039112935        2.20443878011806
H            1.88249591802093       18.00033305649692        2.69652894262795
H            2.08529640675604       16.33627294308719        2.09733006874133
O            2.79294416319452       17.82773951288198        0.84359945504973
C            1.61228583235076       18.01286653766894        0.08599178623222
H            0.97290210520479       18.77461752843323        0.54255403828870
H            1.05269551286265       17.07522208015546        0.00334375946863
H            1.94183912700291       18.33588100127546       -0.89870060317706
H            6.98467004120016       13.55788840705200       12.79856221516822
O            7.06905340428896       12.39398270273181       14.50783872190034
H            5.41439280271467       12.98677167975334       13.41879960663228
C            7.02720414792064       13.47137209331868       15.42205834446963
H            7.49379792728459       14.36439033367525       14.98541260053264
C            7.77593136395353       13.06085714988664       16.68594150565745
H            5.98789833336404       13.71648599193693       15.68166963214401
H            8.84203157959883       12.92652654953695       16.45930242548770
H            7.37492951365530       12.10378621967193       17.04732729192418
O            7.59349658057306       14.07415325979018       17.65028071521537
C            8.33248643099514       13.85077503169508       18.83916915152178
H            9.40837342556467       13.95950727563249       18.64678972345438
H            8.15409414101111       12.84077231340025       19.22829057992411
C            7.87823304256902       14.87884375625250       19.87030985177244
H            8.14869293085845       15.88930921761250       19.53292890965150
O            8.49623716025637       14.58586328533816       21.10354289945774
H            6.78395932549626       14.83032088360480       19.96569684660281
C            8.16007557493444       15.51251708154263       22.11800804775802
H            8.47659766272935       16.52393393032404       21.84287498287496
H            8.69066005536951       15.18874643266629       23.00936519883584
H            7.08099740293803       15.51319841265557       22.30383027097961
H            8.59427147971367        5.57128353431881       12.96299349127312
H            6.99149755797748        5.56126639800719       13.72343250914445
O            8.38930865977755        6.90133415288975       14.44757580096054
C            7.46436794604181        7.44715686736482       15.37377026630172
H            6.88691628692309        6.64088529777453       15.84808152036939
H            6.76804285974554        8.14437556772323       14.89537107574622
C            8.26408390101079        8.18948725047391       16.43892499390074
H            9.00937048744648        7.51047528539209       16.87734971672395
O            7.36952976079058        8.64461780215154       17.43045229548712
H            8.79199500251810        9.03418102410146       15.97632893374580
C            8.01734964911586        9.37702266373876       18.45085527780168
H            8.73091190038218        8.73985773682968       18.99013486061714
C            6.95690078479935        9.91120287057434       19.40905466934873
H            8.57047394021891       10.22457448556132       18.02228675386203
H            6.52960618645587        9.09018631457081       19.99993842485090
H            6.14661362564124       10.37044010409473       18.82336104951345
O            7.56865178354351       10.86472555373868       20.24887172620983
C            6.68807036408364       11.41155368392704       21.21222647802669
H            6.34231831118893       10.63893219868703       21.90576991601119
H            5.82202028142666       11.87475232133949       20.72800685820287
H            7.26382803535547       12.16606234229915       21.74315370196008
H            7.02465366063088        1.76172297708117        8.26960940887693
H            6.00691739568055        2.21714114866433        9.66711653633657
O            8.04648870600284        2.11539141669539        9.95096416759347
C            7.87642707496748        2.34448775518882       11.33755424716461
H            7.43763944223564        1.45593643349753       11.81201055136846
H            7.22078637524924        3.19889786551352       11.53068935979097
C            9.24551202647369        2.64419630222672       11.94111469015152
H            9.89035392231959        1.75926650150929       11.86518890727885
O            9.06990236075266        3.01913006133585       13.29296575514070
H            9.70294166637552        3.46445175825525       11.37044961477881
C           10.29650784825305        3.30041937429772       13.93973591423962
H           10.89080328328672        2.38255620298300       14.04897065681376
C            9.99839227758787        3.87626790031602       15.32053187537489
H           10.88126025728872        4.02313701577763       13.35540669684118
H            9.29299319897748        3.21399980506469       15.84300834404197
H            9.54016470792487        4.86914614168994       15.21955391849784
O           11.21359630478939        3.96521748286473       16.03382693110407
C           11.06888922009666        4.61346331466512       17.28135452270803
H           10.36787403400411        4.07111879563496       17.92432249011593
H           10.71024953809367        5.63950412666207       17.14413571231023
H           12.05742482630875        4.62245998225953       17.73232373061737
O           -1.34904976928298        4.05579840206631        3.31672916983437
H           -1.25312464267769        2.91204744997675        5.03865908453794
H            0.31045713191059        3.49854695675882        4.41708381257561
C           -1.30491022763723        2.96186375078455        2.42237829734027
H           -1.76383738843396        2.07439300637743        2.87791756623553
H           -0.26535697164130        2.71793974718206        2.16247938845879
C           -2.06187178433770        3.34360825660477        1.15445757101619
H           -3.12845833444005        3.47125156304095        1.38236300083964
O           -1.87250550569085        2.31641287479062        0.20618789922415
H           -1.67190107491042        4.29852289819269        0.77579392238680
C           -2.62630138806175        2.50731307499699       -0.97902834051972
H           -3.69888741593860        2.39201684458756       -0.77263371324242
C           -2.17267948498027        1.46216432622296       -1.99310891174667
H           -2.46244833066072        3.51069531747267       -1.39105084145365
H           -2.43011074764363        0.45657037356976       -1.63173769697639
H           -1.07991636137652        1.51875545218492       -2.10085799398913
O           -2.80592861277290        1.72368661820541       -3.22557316539180
C           -2.47330916616711        0.77791094663309       -4.22346671815579
H           -2.77746204149625       -0.22986152523094       -3.92241372883554
H           -1.39650475155292        0.78267861070540       -4.42209165369712
H           -3.01712109903735        1.07744353955614       -5.11530691122966
H           -0.72711955062912        1.49915362373101        9.24274933544113
O            0.02163829290552        1.15138467422844       11.06909559300673
H            1.05454907616944        1.50054597633564        9.31113941970226
C            1.22676777690357        1.05730307145651       11.80945558789614
H            1.98227946506995        0.50534950970180       11.23289450159167
C            0.92063320848967        0.29701197305065       13.09591080143726
H            1.63179163316200        2.04390048258127       12.06189115842408
H            0.50670794362535       -0.69019250860230       12.84930958779211
H            0.17220303053323        0.85079140315747       13.67806209446077
O            2.12298799730398        0.16401138445332       13.82498596782456
C            1.94709549493304       -0.51113868013405       15.05450622984951
H            1.54486589036482       -1.51954044982356       14.88783006387330
H            1.24746261044650        0.03654495477049       15.70035058805811
C            3.30532563110637       -0.60871758911560       15.74106928928609
H            4.00023501567592       -1.17140028142059       15.10196872773638
O            3.13113418440238       -1.25997630098717       16.97978195233772
H            3.71398220699246        0.40132599840292       15.88596144872060
C            4.34136626316288       -1.41577906125438       17.69503896697795
H            5.05525117899006       -2.01993067176474       17.12577628228471
H            4.07990861252778       -1.92277679627456       18.61977918203327
H            4.79190808516105       -0.44270434659731       17.91595965759827
H            2.25581301555884        5.85302585881519       15.35365990240227
H            1.16666225028669        4.44460125697582       15.49059517491825
O            0.45433454322757        6.12596326481674       16.31841508798214
C            0.87848097205086        7.41724345395314       16.71002634606063
H            1.23401938809780        8.00402231209413       15.85623145980409
H            1.69629880547751        7.33938401302664       17.43992071135849
C           -0.31051371192471        8.14604365224888       17.32934544138449
H           -1.14438785257019        8.11869011028804       16.61353665043541
O            0.08266915152980        9.47698314399221       17.59627950590902
H           -0.62464226054123        7.64046181961074       18.25146707525572
C           -0.96111682665338       10.27016237942490       18.12595263960917
H           -1.83206523553778       10.26244126075409       17.45578848318041
C           -0.43937351832002       11.69658129378592       18.26893157263228
H           -1.27909708643550        9.88563195063331       19.10447053455355
H           -0.07965934402439       12.05222488328824       17.29317673015100
H            0.40090447628226       11.70746384325592       18.97647167714360
O           -1.48825084001298       12.51882582683183       18.73493748473521
C           -1.06694710302483       13.84855031914926       18.97920427168079
H           -0.67074388581528       14.30367807506290       18.06569084101563
H           -0.29750997522220       13.87316181198100       19.75715272218906
H           -1.94909996187477       14.38868768936204       19.31255232077334
O           -0.75259038073118       12.25587571561955       14.76788380613938
H            0.85569699708056       11.07552555062031       14.86656739626951
H           -0.67544768518793       10.23752522478415       15.19324806647643
C           -2.16203613880305       12.31098509404478       14.61738285058026
H           -2.61431464974930       11.34472361595281       14.86734348264594
H           -2.42835250207092       12.56609241875775       13.58444588345182
C           -2.70844696487339       13.38845389966052       15.55220506687536
H           -2.58547535773973       13.07910572664683       16.59872545455208
O           -4.07697960569590       13.57525399294703       15.25352191642937
H           -2.14950672877109       14.32060307856077       15.38952841394691
C           -4.68909738497593       14.53898149930598       16.08690604070278
H           -4.63273341678639       14.22905706119612       17.13917682779367
C           -6.14769827735488       14.67392046409747       15.66353145474829
H           -4.18795195933098       15.51136103664003       15.98483190931872
H           -6.66068020601730       13.71125175310999       15.79851134188233
H           -6.19284359827187       14.93995015091605       14.59787402187675
O           -6.75054798504119       15.67511580006719       16.45246448960001
C           -8.11127351734041       15.88425056592265       16.12944097163328
H           -8.69598366609357       14.97332060517274       16.29594101363427
H           -8.22097049244238       16.19341069880985       15.08496262495161
H           -8.45870114788444       16.67429010356137       16.78957173982233
O           -2.67120372962392        9.61651502081685        3.24019881281489
H           -1.28181024601047       11.01771362565529        3.85998975531143
H           -2.89588876797815       11.05452075453006        4.61769169502505
C           -1.74151984623035        9.01752599307850        2.35352395388743
H           -1.04330776416361        8.35498230588519        2.87687625465536
H           -1.16493783705275        9.79393188703565        1.83048359244983
C           -2.53908942531747        8.21308965721112        1.33257802524369
H           -3.04027881859165        7.37532163730957        1.83554811232790
O           -1.65025984088562        7.73708692688253        0.34364120312879
H           -3.30502955550038        8.86007100745551        0.88336399086515
C           -2.30673660844513        6.98343223220055       -0.65542295025926
H           -2.85760183489809        6.14622386277531       -0.20427427405373
C           -1.25542644353848        6.42872783649326       -1.61204871193149
H           -3.02430303467649        7.60955896677229       -1.20230649721664
H           -0.44722458653279        5.96702840510784       -1.02535491937508
H           -0.82271250697354        7.24018211172418       -2.21223392736680
O           -1.87964338088785        5.47316479497848       -2.43996645539192
C           -1.00874611025529        4.90960685509098       -3.40277288444995
H           -0.14474837739521        4.44246359432589       -2.91869579286099
H           -0.65928434329597        5.67283888538296       -4.10477934991091
H           -1.59396616786298        4.15570304791999       -3.92410026004172
O           -2.26371163925178       14.35513258803548        7.74945051107176
H           -0.21776599784751       14.36357199110930        7.97737284455774
H           -1.15499659553917       14.90726877380751        9.40204671734787
C           -2.30250937201952       15.59710726052583        7.08240012093942
H           -1.42616292320400       15.71673271895086        6.42907861375315
H           -2.31319552457550       16.42547045877705        7.80414868639974
C           -3.57139711723818       15.62515795733413        6.23721424018871
H           -3.58607553393849       14.73951528710760        5.58697578685841
O           -3.57680039562545       16.81227032524186        5.47379071310586
H           -4.45169157652877       15.57941808379178        6.89193017036701
C           -4.71901474921138       16.92600344383507        4.64803432543414
H           -4.77611501672099       16.08001865765532        3.94966957410955
C           -4.61315036211603       18.23033814231476        3.86507503819241
H           -5.63470561937529       16.93193420084573        5.25460229813112
H           -3.69051806020991       18.22305933135000        3.26782583528306
H           -4.56398553747275       19.07540055289748        4.56590473310387
O           -5.74521975266547       18.34077198781792        3.03140673720537
C           -5.74482762151993       19.52507191391273        2.25751885359222
H           -4.87138277666689       19.55921072526142        1.59823346349466
H           -5.74414089003882       20.41070548191214        2.90100016337239
H           -6.65557390010464       19.49654046000330        1.66565318981527
Br           2.86024592425415        8.27333946539671        8.82169950525985
