185

O            7.52294478043662        6.18612355951733        3.39644892765567
O            7.14219380867093        4.54835516039880        1.77559503403813
O            0.39755722481040        5.71842275503121        8.07941256665872
O            5.69170044230501        4.93467308683398       10.70696730453616
O            0.38846836940270        5.99527958555546        3.61384681589757
O            2.36248398785409        4.67225178379640        0.80137234362936
O            0.95751517992434        4.10483428293927        9.67707976747378
O            9.38628213056944        7.97088197111790        4.37315438625756
O            3.16685974032674        2.22048428300462        9.28773490620383
O            3.98600508500297        6.32660129727210        1.13702554621532
O            7.14950079109694        8.61898567115326        9.49113353729755
O           -0.45226847263367        4.19088096573604        4.84433979372253
O           -1.56343869489221        7.40806817320546        7.12630708717485
O            8.17129577729413        3.69477492480803        9.73741171881009
O            5.89824541416339        7.97801809018340       -0.07581809731578
O            3.83531749105725        6.29155934332851       10.29706579672538
O           -1.87616502332951        7.53010577599127        4.32391069050251
O            1.68567673759442        7.62727018217117       11.62118446344414
O            0.13032991292150        7.98806774484830        1.70117198816205
O            7.43441258797029        6.41743650608713        7.80981047934850
O            2.33390216093630        8.23871316401599       -0.05630581686441
C            0.12870229470248        6.22623192284306       10.42257492412576
H           -0.10640589081212        5.72223743384985       11.37642662010137
C            7.87678059755595        5.68680725945030        2.13961084334580
H            8.92093312402197        5.34308472146399        2.13888829356516
C            0.08717944345633        5.14692433190474        9.31836028582322
H           -0.90217426768502        4.66869545711438        9.28762877760243
O            8.38708408233940        7.95339904404929        1.27863064953827
O           -0.73742773352054        7.30480760019199       10.21972144042840
C            1.88193344271221        4.71355666518961        2.14086163884570
H            2.70071972722249        4.98715566755485        2.82349844102314
O            5.25759068898524        2.43574628670044        2.32266494618414
C            2.60477970913720        5.67107864447719       10.64167097268194
H            2.62403558648145        5.36537637323117       11.69736198586557
O            8.45392931372962        4.68131361955390        6.62206342757296
C            6.17719042175579        7.12649785513272        1.01250169500298
H            5.89740555593520        7.59279150408110        1.96611983343306
C            0.77042332137912        5.76684617160126        2.26743622198267
H           -0.09717912955410        5.43581728706760        1.68002349701169
C            0.36125866364160        4.42557270712045        5.98427743675965
H            1.29952514888437        4.91791036008684        5.68615960901944
C           -1.56894789955535        6.32380483227953        4.96112763038984
H           -2.49954380593161        5.80360552084525        5.25207816872462
C            8.33781730475487        5.84079852684235        4.50242028494854
H            9.28612414385882        5.41103018941599        4.14911113766022
C            1.55335202078380        6.78384913166810       10.49885604624395
H            1.76302868674763        7.32005811275797        9.56516787442781
C            1.24462840230135        7.12579580905087        1.73377650494185
H            2.01605594325163        7.50027370582675        2.41937878417642
C            5.72822523092619        4.71460442454021        1.74984781970541
H            5.34753812465107        4.93405336916797        2.75920399076360
O            1.52102109032954        2.35565830193620        5.70554635373432
C            7.66804990531885        6.77407663850940        1.06165452476021
H            7.95641432317397        6.32599343648572        0.09428146246163
C            6.16767643180515        4.98297635699227        9.36413574769909
H            5.31680191062191        5.05447261095773        8.66995875376782
O            5.09768093140627        8.41442404471939       11.51948529043448
O            9.62142968214874        8.10672659492102        7.18738711930379
C            6.30525594374657        7.49187172730623        9.59312575470088
H            5.42606247781022        7.60532384553380        8.94598762136814
O            0.15751813739266        3.05203016335585        1.86900493425273
C            2.33780534743546        4.44829860327757        9.73876300581972
H            2.71570162874693        4.69097405424818        8.73342758167176
C           -0.38633812391755        5.34783539925143        6.96123990086848
H           -1.30268418600381        4.84195964322338        7.29938812253393
C           -0.74873186285567        5.34153381527987        4.09154884985204
H           -1.35401204448196        4.96099722815643        3.25671257303385
C            2.92559776341179        5.87928035566162        0.35105257537881
H            3.26777767295386        5.64837148623748       -0.66930650073485
C            5.29842474544424        5.87720937361040        0.83409708515497
H            5.35284559514815        5.56739186310636       -0.21995788758297
C            8.63611278957503        7.15584066699249        5.24310081838507
H            7.67122636528960        7.61913273385999        5.49243358163535
C           -1.33700225326828        8.80709520434993        7.07975270926055
H           -0.28884535526282        9.03134260365992        7.30202816212605
H           -1.98074692259779        9.22534823945201        7.84868399072942
H           -1.59351671773913        9.20436040674804        6.09530886754176
C            1.84670996047749        6.98493537473155        0.32910518784196
H            1.04847429976649        6.65598045767291       -0.35843787597632
C            3.04080690123028        3.20587093361610       10.28677533290466
H            4.03332405441451        3.48654298836136       10.66088428482802
H            2.42857153575530        2.81646596036431       11.11397214142122
C           -0.77854062911366        6.64660522918741        6.23838549696385
H            0.14788633760561        7.17306036657710        5.96988196052471
C            4.95115857168775        6.06264164087283       11.09976856596896
H            4.64750080362875        5.85653522891418       12.13655942371881
C            5.19230343568283        3.36690466450727        1.26668419514210
H            4.15840019263686        3.47514731750615        0.91884651319887
H            5.83259343584277        3.03103382896078        0.43769818726505
C            5.83980588877560        9.36245368616226        0.23803561288323
H            4.99385172041586        9.56510131782844        0.90221238050872
H            5.69725843110934        9.86401271964205       -0.71534859010154
H            6.76788146742157        9.68913511221404        0.71014129894350
C            7.65728833478632        4.84431147169492        5.45649323456816
H            6.67186566081117        5.25382738958965        5.72662099101612
C            1.70472998426895        9.01768503337948       11.34130810043220
H            2.59518944372471        9.27494156553125       10.76001723859808
H            1.74207722056926        9.49918966003291       12.31476153891892
H            0.80362815758899        9.31336979792740       10.79920620890790
C            3.72580744900950        1.02210276755441        9.80754704575217
H            4.70037029134289        1.21948299182908       10.26482295133787
H            3.84262093610810        0.34712237298044        8.96409292519382
H            3.05698938972768        0.58339658357237       10.55395903478053
O            6.82517729482448        2.54539154372196        5.70840536709104
C            0.37035580516418        9.30213967940874        2.17477455153437
H            0.68727034804658        9.27959015692537        3.22289832150101
H           -0.58252806312563        9.81636198631150        2.08440772523909
H            1.13501219909660        9.79418327749186        1.56890295861198
C            6.87858502146116        9.47911593562372        8.39840629181033
H            6.81191283571251        8.92255464991348        7.45989184403663
H            7.71252500126245       10.17521721900846        8.36308426529829
H            5.93563171868421       10.01336089404172        8.55770351723805
C            9.41632711258103        6.88441946982523        6.53725285006995
H           10.38688811713211        6.42912820389302        6.27120091780521
C            0.67405867169880        3.05794129155469        6.58263337409275
H            1.15934388322649        3.18496588889190        7.55710007979715
H           -0.27003070060804        2.50637290894503        6.71039333966034
C            7.05803112894603        6.22131223855529        9.16116649438032
H            7.95705063883967        6.11141909203026        9.78509005721103
C            5.83627735556384        7.32138836918171       11.04758748030099
H            6.71691732307071        7.14705671063884       11.68214654901197
C            8.63854324157796        5.84813361093349        7.37991502716022
H            9.23489808620960        5.51509980606953        8.24038369915051
C            6.91132873128922        3.67191693355661        9.11281486135790
H            6.30175498866620        2.85254148321459        9.51890479616261
H            7.02259690118203        3.51951889856745        8.03314456655021
C            8.94056353721235        2.54160958853041        9.42780291837733
H            8.43784632674634        1.63852561437669        9.78559615695253
H            9.88876846682283        2.67408455770666        9.94104693717207
H            9.09253946355437        2.46823853646628        8.34658170188545
C           10.45239738059387        8.04759314864339        8.34023948443077
H            9.90797291841132        7.64422533828156        9.19726048679404
H           10.73312830702364        9.07811066821050        8.54189528827083
H           11.34211530706888        7.44458459770176        8.14132903160296
C            1.39606087398474        3.30698482912477        2.48503703506865
H            2.14957180482506        2.58859520808460        2.13161440617289
H            1.31753453559624        3.21342666462032        3.57391894578012
C            4.97494579694266        1.11249009719666        1.89579703304945
H            5.05697075365634        0.49027400805690        2.78274231974597
H            3.96389383130837        1.04771060744470        1.48106891834477
H            5.69994664577277        0.79277530037927        1.14159471937854
C            7.51138537649118        3.43653499487235        4.86049376901891
H            7.01716328858621        3.49630333084655        3.88572529299194
H            8.51152849178139        3.00823967764282        4.75705082763857
C           -2.74577233819239        7.41737429885536        3.20225208601205
H           -2.19832728951932        7.08540744126936        2.31753362285518
H           -3.12808972186640        8.42150804142535        3.03739662668167
H           -3.56806343933414        6.73199681676689        3.42319269745978
C            9.80037956108121        7.82921030713980        1.15828264296307
H           10.23025514461674        7.39584251947042        2.06359589468565
H           10.16560161087334        8.84504066334004        1.03085223012461
H           10.05754772550385        7.22502581127763        0.28452541608439
C           -2.12334684279723        6.99259743973240       10.30422339657260
H           -2.47639550572974        6.54202460200053        9.37421445990405
H           -2.62175427964699        7.94623935412349       10.45819033089038
H           -2.31502663055252        6.32735706695533       11.15000681802488
C            5.87402065952985        9.39660828704615       12.20450057930161
H            6.33179428957235        8.95849040302286       13.09544893979102
H            5.16556614430846       10.17006021733191       12.48742602552522
H            6.64810169758483        9.80536323240679       11.55343810765998
C            5.41568969364452        2.65767825501069        5.69945856709089
H            5.06072407554956        3.58958233301008        6.15522564456057
H            5.04909823721911        1.81946456863698        6.28672623282220
H            5.03010590082063        2.61121359794502        4.67636114028318
C            1.92990670335176        1.10714504698335        6.24557649031695
H            2.44330148411715        1.26466118667836        7.19743534438342
H            2.60746552180738        0.67715287457060        5.51350570656627
H            1.06211988931576        0.45732213893489        6.39462212636868
C            9.07094996878041        9.35349461685675        4.42377345962341
H            8.02454377611653        9.51586247905241        4.14722212847467
H            9.72801649875609        9.82181172311792        3.69627491087491
H            9.25018761954121        9.75118959953718        5.42452246802717
C            2.77623052127398        8.32369568095958       -1.40839973280045
H            3.76545701915946        7.87487950247082       -1.52281291938047
H            2.82895711146283        9.38799995364124       -1.62288110028952
H            2.05823855236130        7.83993201625158       -2.07525624969830
C           -0.41578369361657        1.82867326023189        2.30408778018181
H            0.23891254306587        0.98807838470606        2.05599950197926
H           -1.35995539318681        1.74156197010975        1.77392383343152
H           -0.58126608340821        1.85510292322259        3.38509437411022
O            3.97565178555472        5.61613512754452        6.88749881519079
O            4.06124334189436        5.75899827720704        4.56800876202873
Cl           3.95377176532017        6.51222738845024        5.77522774887308
O            5.05127971215716        7.41844815197176        5.87153945636461
O            2.73617882924366        7.25161997219582        5.77844515183942
