53

Br          -0.90788822992871        8.78685677787379        9.43753010402412
N            1.56051813753470        8.29082488429977       11.72564750670604
C            1.78425627469809        7.55368429324474       12.81308262558924
O            2.89235462254368        7.35297380943887       13.30456157551254
C            0.54144917190775        6.98332982768024       13.43662549457788
N           -0.63414666502614        7.43578921319080       13.01788971012997
C           -1.73101400759534        6.96875196131307       13.60157951096651
C           -3.05753650859224        7.52809123616773       13.17030565572357
O           -4.07647161807940        7.32577353782567       13.82670501656937
N           -3.00691283039297        8.26122198408008       12.05873123049885
C           -4.17687090449246        8.81410300802126       11.41818779008253
H           -3.83331345776432        9.54888977896453       10.68872609577591
H           -4.78350480247991        9.31052498275352       12.18207648411679
C           -5.03239940320124        7.74349925678677       10.73327784622871
H           -5.94053933039335        8.21145689393571       10.35244842359356
H           -5.31263391573206        6.99126702055493       11.47222419330167
C           -4.31223188005214        7.05003587293836        9.57243621391036
H           -5.01153656365665        6.36099258499913        9.08866215611599
H           -3.96510631731852        7.78731683478010        8.84754831964270
N           -3.16060769644691        6.29498587873720       10.00705372375891
C           -3.24764285151206        5.16292340919365       10.70499216830892
O           -4.29919505489222        4.58327163435934       10.96503463262837
C           -1.92332203508330        4.60688950350730       11.14712430419616
N           -0.81886787311024        5.13630976438423       10.63539681407924
C            0.34994093189809        4.61397735846031       10.98661346425442
C            1.59415017531505        5.17398374350758       10.35604213229155
O            2.67190443594749        4.59173337251024       10.44949121409801
N            1.40333031426307        6.31101300403120        9.68809614637827
C            2.47200589244267        7.06534494695476        9.07705133151320
H            2.01451022107682        7.79642238929193        8.40903897113522
H            3.09079688279357        6.37410202564042        8.49646706420845
C            3.35952018881284        7.76901228332564       10.10869171635662
H            3.75116908322527        7.02290883961487       10.80165231131478
H            4.19759441818515        8.23550532479827        9.59013234853382
C            2.61547942566140        8.84293206787679       10.90889708193625
H            3.33000626375103        9.34816995676703       11.56620465500333
H            2.16039145715804        9.57024150869855       10.23526886005786
C            0.66946043480913        6.02163361340977       14.43640713173861
H            1.65947314294633        5.70166667452253       14.72062784235241
C           -0.47618640848421        5.51404245439202       15.02355935003081
H           -0.41515010114666        4.75988245713583       15.79426226092883
C           -1.70120935537487        6.00467510019682       14.60688592399300
H           -2.63597547972501        5.67080524109155       15.02898796443164
C           -1.90513743897628        3.55131998845844       12.05630624389591
H           -2.84458092691039        3.17538256250477       12.42990836486731
C           -0.68453425171390        3.02734472336300       12.44420077690926
H           -0.63195410781458        2.21598979388631       13.15511352314249
C            0.46642737575465        3.55976048180487       11.89011610894489
H            1.45120515157146        3.18984632737409       12.12893948088922
H            0.60633003327499        8.36323861328203       11.38351496922131
H           -2.11776199630057        8.33622390940114       11.57220223742833
H           -2.24264621167948        6.71254168159653        9.88304025188580
H            0.47663659585210        6.72769047837616        9.70507179566185
