133

O            3.26888871922964       -1.30473494295392        6.19374235512091
O           -1.07122493373884       -7.11795518081251        1.64442549046985
N            0.98143467359696       -1.77654843045705        4.71274951219418
H            1.64618844718859       -2.53768997046734        4.70126529315227
N            2.69688992670389        0.88689746298722        6.47596545336526
H            1.91589808952602        1.52620960138992        6.42220248703833
N            5.23747986510367        0.44714995311038        5.46934908903136
N            5.36669141352988       -0.47813455220845        2.85146275819162
H            4.59674743647613        0.14635402594295        3.02698056390900
N            4.19888961042051       -3.03004218782093       -0.06697596901359
H            3.91558573505000       -3.26408739689122        0.87740946323332
N            3.17473893073426       -5.69218290847339        0.12077747885737
N            1.02154777306764       -6.23170572343650        1.68365173248267
H            1.59896027181778       -5.40557054356381        1.81135468643756
N           -0.05021351679043       -3.92107607322514        2.98794703904766
H            0.95471234081975       -3.81618247782467        2.85271390291852
C           -0.25309315281798       -1.78446631695953        4.15222463347910
C           -0.77249717070416       -0.49492659614307        4.25584485616039
C            0.20115844654058        0.29560979561384        4.90092231348984
C            1.28966178374398       -0.53461870510002        5.17991132818064
C            2.51103825151348       -0.36512911547035        5.96123219861695
C            3.82557990373439        1.31683136130994        7.18772971786189
C            5.11526386133716        1.00215989593130        6.71928025514595
C            6.21550641439833        1.41353300209818        7.47631109476901
H            7.20715412957534        1.18264470276674        7.11148170771620
C            6.04729905306098        2.14201518673393        8.63780489962138
H            6.91330831260175        2.45651184366974        9.20223643612820
C            4.77473189111114        2.47940762816107        9.06981178524260
H            4.64111947042081        3.06109731643149        9.96945666341995
C            3.67032404154799        2.06276719041942        8.34682471443947
H            2.67221823734174        2.31233484364242        8.67867322452237
C            6.05715288329746       -0.48888997770878        5.17830505480842
H            6.67024546336527       -0.99345928224599        5.93617965452863
C            6.17687296680996       -0.95841595944573        3.84430418417308
C            7.04534307990277       -1.88391258352418        3.26243375540184
C            6.71744988419635       -1.95315655937164        1.89538730875314
C            5.65622442042971       -1.08137281734370        1.68165022238072
C            4.99262286818620       -0.68776748469530        0.39493846196536
H            5.69510872668664       -0.04097410864872       -0.14971164933107
C            4.71709880000491       -1.86343573116662       -0.49316341236468
C            4.93586503442172       -1.94930005954407       -1.86544399837256
C            4.54405696382139       -3.23524734613044       -2.26723371775978
C            4.08099316817182       -3.89386636619852       -1.12173996260794
C            3.60113378356386       -5.22145893410225       -0.98851142890772
H            3.59437460524903       -5.82224110995862       -1.90978532159933
C            2.81594797527646       -7.00766325063878        0.28169467574557
C            1.70791170108828       -7.30115061761643        1.10630744421595
C            1.35150885398533       -8.62452300434285        1.32398745095619
H            0.49412843071337       -8.84047879382785        1.94107371472212
C            2.08097583491502       -9.65563688777840        0.75606978763198
H            1.79023741340213      -10.67906730174238        0.94278446241733
C            3.18656129025067       -9.37617293878416       -0.02866801756129
H            3.76781968078881      -10.17981265367596       -0.45818451188293
C            3.54826490931872       -8.06384299665163       -0.26501721584142
H            4.42086436764378       -7.83553085266928       -0.86268333167518
C           -0.31451125457386       -6.20112218770472        1.96618896429739
C           -0.79704867104842       -5.01624365185448        2.66744039624703
C           -2.10125338054868       -4.77832817769819        3.11210610190414
C           -2.11745667908064       -3.50642970517600        3.71379068633364
C           -0.82282805367481       -3.00094369534778        3.62230674446789
C           -2.05060630927492        0.01320951010226        3.67546437165669
H           -2.33525984928792       -0.59548355495348        2.82122290288881
H           -1.92397861084484        1.04515123397019        3.35387908687162
H           -2.86074936737541       -0.01354706988199        4.40254499647301
C            0.06705077369983        1.73398579100578        5.15112185542013
C           -1.00926963073617        2.22964154447691        5.88384592303673
H           -1.72802507435236        1.53751715238404        6.29659536860734
C           -1.14856634721576        3.58980449787323        6.09524133437010
H           -1.98400879837117        3.95961441262921        6.67173418612468
C           -0.22249634654184        4.47594429316966        5.56930845773657
H           -0.33391862879824        5.53749766746856        5.73321264941660
C            0.84527913986622        3.99557890156609        4.82785640862342
H            1.56644575464270        4.68048589369106        4.40643196729888
C            0.99043884875466        2.63593111675192        4.61844501500279
H            1.81503151249787        2.25695494833795        4.03115002953441
C            8.11396873365741       -2.65641375962405        3.96241991702719
H            8.45259287214698       -2.10392116393556        4.84192011465805
H            8.97075932078352       -2.78857605074834        3.29649013273772
C            7.61232828028486       -4.03704972884284        4.40305262726827
H            6.75607346954086       -3.90699852856854        5.07018524610917
H            7.25689653488748       -4.58473108228633        3.52726615947373
C            8.70191849723692       -4.83761116423499        5.10576502290636
H            8.32389128167644       -5.81366487591459        5.40280593648808
H            9.04302326177091       -4.31429663663490        5.99721411984466
H            9.55290875237223       -4.98308125604531        4.44308754336632
C            7.38210352964782       -2.80807055236378        0.86733123026944
H            7.31826671872850       -2.34853650555404       -0.11565286382074
H            6.89964389910917       -3.78520858027673        0.81137661781262
H            8.42865866344944       -2.96404488759194        1.12048097693450
C            3.71551552426273        0.09839773169187        0.60771386152151
C            3.56237065023573        1.34841536310583        0.02505375680568
H            4.37066415222910        1.77105179621963       -0.55573133555416
C            2.38607229342311        2.06226840777209        0.17727251452759
H            2.28922765729126        3.03433938664094       -0.28597574520901
C            1.33130448014571        1.54237264112676        0.91326701545856
C            1.48992587725583        0.29086079256281        1.49987018516780
H            0.68239116588303       -0.13023829838820        2.07969120493384
C            2.66349479584243       -0.42355442328085        1.35334132523914
H            2.75952159914560       -1.39078441649764        1.82447438892641
C            0.04771521025199        2.29813699074816        1.08137201305860
H            0.07722699589300        3.24225418112764        0.54337676518557
H           -0.13060155634825        2.50138363611792        2.13687622744486
H           -0.78770839862028        1.70652039359187        0.70995542422262
C            5.48151707222588       -0.85915663325840       -2.72930743660133
H            6.38874667989086       -0.43763544703452       -2.29664283657885
H            4.75147000032899       -0.05644500941673       -2.83388478663047
H            5.71622906871095       -1.23899468462082       -3.71930334253042
C            4.57759731877613       -3.78698728704000       -3.65455497950947
H            5.44532214193836       -3.39127244150435       -4.18771344197173
H            4.67900283400659       -4.87365481517892       -3.61811594197641
C            3.30457327040245       -3.42729116399031       -4.43139956601332
C            3.32904475224031       -3.98628398937071       -5.84891733297969
H            2.41932345927919       -3.71589487985140       -6.38020076523760
H            3.40494761066884       -5.07178929864312       -5.82839004662679
H            4.18126695952734       -3.59318701309047       -6.39954454747136
C           -3.25511536767176       -5.67837811937547        3.04103066643902
C           -3.22964075320601       -6.92132114630954        3.66617177129771
H           -2.33020821589850       -7.23599016114797        4.17610225538865
C           -4.33714472781470       -7.74745225715610        3.63115397777951
H           -4.30152179093417       -8.71284498801289        4.11700857355035
C           -5.48999763989870       -7.34259151538772        2.97779709642961
H           -6.35432404512683       -7.99093965659497        2.95144857366775
C           -5.52795611300015       -6.10477135263451        2.35897409154681
H           -6.42385815919840       -5.78342931686157        1.84615514104122
C           -4.42005177663125       -5.27738221805957        2.39360768268310
H           -4.44605270232910       -4.31398978835380        1.90464788342538
C           -3.28137490228467       -2.91035006677661        4.43310165817450
H           -2.93313725901777       -2.30703560146018        5.26770784418374
H           -3.92163015025925       -3.70583068407852        4.80950113778992
H           -3.88036388588376       -2.28174955160685        3.77548904381793
Cl           3.05477483330944       -3.79399991117252        3.00895425810368
H            3.20402302656440       -2.34070589740127       -4.46385882277172
H            2.43968935375069       -3.82207422994448       -3.89297874525959
