71

N            9.58478565636372        2.00883122669409        0.34630516933995
C            8.97234537768017        0.90706779867253       -0.36720724290735
H            9.35127026648408        0.89069824709554       -1.38784931619964
H            7.87327971435564        0.98572809805707       -0.39772096819828
H            9.24161354770026       -0.02746296831442        0.11851928782329
C            9.18467999239069        2.03852525099997        1.73892509703391
H            8.08604987177715        2.01198946098780        1.86051869516804
H            9.54596024366386        2.96801097527575        2.18216041675687
C            9.82337723128640        0.89086882196537        2.53815334345695
H            9.22322609123535       -0.01937766237048        2.48940413866015
H           10.82192116260036        0.69892966261975        2.13596435012433
N            9.93635149770237        1.25286765348627        3.92988234240588
H           10.54457557458453        2.04325869604854        4.12366666805618
C            9.09730086446121        0.79160485519882        4.87187371396433
O            8.26935168964856       -0.09016955881680        4.65816801907300
C            9.22022550198366        1.45016418522142        6.20859057635792
C           10.40824668587531        2.01322676744516        6.65892814474099
H           11.30682667566590        1.90498729551449        6.07125806897852
C            8.08136414616771        1.51647825421324        7.00731801737802
H            7.17382294661063        1.05690253811267        6.64450549601146
C            8.12125364018005        2.15669572296068        8.23265707485673
H            7.23613133299387        2.20122684780888        8.84917045374364
C            9.29614783075324        2.74720836880831        8.66065853747245
H            9.35104582247740        3.26262589129642        9.60813467053486
C           10.44393055096500        2.68751085755412        7.87402783340812
C           11.68390202789054        3.34844140536142        8.38359572383512
O           11.87841949277659        3.52917227427190        9.58167034389269
N           12.53426227225724        3.77781360486927        7.43689302856709
H           12.34050789278817        3.59041226006576        6.46353034161260
C           13.82757292202817        4.32984513112536        7.76078071531431
H           13.70430480294290        5.03943320383935        8.58486360052554
H           14.19495249859940        4.86744193117336        6.88552809211746
C           14.81616766882540        3.24253969693489        8.21630413332224
H           15.83347135486049        3.67568176879785        8.22960412021093
H           14.54706604957264        2.96113116351544        9.23693611660516
N           14.73711887970772        2.03377319838328        7.41545314998818
C           15.46773151027647        0.94827708019137        8.03646800646773
H           15.09201814049522        0.80012257685334        9.04764133733820
H           16.55123468099341        1.14428589070256        8.08529207461496
H           15.30385948777046        0.03602562159270        7.46826509898107
C           15.13341908771643        2.23240690339818        6.03574018165401
H           16.22750609302889        2.34748999656250        5.92564453450884
H           14.66408692400181        3.14789400265872        5.67135591465265
C           14.63876082418445        1.09129947467280        5.13203241008986
H           15.34631609185496        0.26069318013701        5.10578446514391
H           13.67198255989040        0.74392782832161        5.50620834251873
N           14.47859765444404        1.55853591692185        3.77686926085345
H           13.76952004331573        2.27447844723363        3.64685024973267
C           15.37577044336218        1.30427244421727        2.81003695900528
O           16.31896978455038        0.53150613739877        2.95816703267955
C           15.16128329063752        2.05182096024017        1.53301587886731
C           13.90601647670708        2.48523802319936        1.12358574828635
H           13.03247390281397        2.20601734254342        1.69234275732345
C           16.27690020287785        2.33939003139062        0.75065794529710
H           17.23997304397506        1.97700796416723        1.07867461770186
C           16.14500226257868        3.07166849042523       -0.41528938347397
H           17.01323946848422        3.28918975794502       -1.01890950384168
C           14.89918238078258        3.53322106358486       -0.79921127824768
H           14.77089151204496        4.11593483092810       -1.69931127713413
C           13.77351142930121        3.24969985866102       -0.02965594565832
C           12.45199875362541        3.77736998805340       -0.48738787573400
O           12.22444646272757        4.02639764051856       -1.66718864144537
N           11.56138230640995        4.01252651429323        0.48989017574818
H           11.78822692101192        3.77803142200792        1.44591173329519
C           10.20620853601298        4.42237673745482        0.21094112355366
H            9.77960500044290        4.82769817607085        1.12939146920662
H           10.23230743636790        5.21339732622667       -0.54508008922966
C            9.35991911510480        3.26527653506907       -0.34646666527212
H            9.66204287262801        3.10923368523245       -1.38474685088878
H            8.29717090171800        3.57030421714817       -0.33351774513607
Cl          12.05619667601927        3.73585969711380        3.95046108898614
