33

O           -0.00199124117719        1.11325274367010        0.00309628553095
O           -7.34749386814346       -0.55589580954326        0.00050903612163
O            7.34221106256335       -0.56287726336721       -0.00013526915210
O           -6.88681173419559        1.54345803326868        0.00211973521027
O            6.88384756301298        1.53696534392902        0.00165797569193
N           -1.12824660320411       -0.89448715711457       -0.00211122564497
N            1.12283857448420       -0.89523187431674       -0.00220099275989
N           -6.54026520110017        0.36734643604458        0.00063614894067
N            6.53597530222132        0.36123650923913        0.00031153629251
C           -2.44279163687001       -0.52583977632365       -0.00146677019799
C            2.43765969862102       -0.52763095722873       -0.00166092052349
C           -2.87844658474949        0.80965644802808       -0.00000809587771
C            2.87463324891212        0.80743057134767       -0.00020032312603
C           -3.40104046810571       -1.55654477537783       -0.00269144023783
C            3.39484184447813       -1.55933121643118       -0.00298619882254
C           -0.00228603725338       -0.10416004724293       -0.00008518924466
C           -5.16173120662181        0.06516818983430       -0.00033643800805
C            5.15715129360224        0.06055332907733       -0.00066127341939
C           -4.22071717045163        1.09842606759695        0.00056617921882
C            4.21720940388427        1.09478848745928        0.00030279447728
C           -4.74103357484287       -1.26920066629865       -0.00209378389259
C            4.73510463889755       -1.27340115601355       -0.00246414244836
H           -0.93841248162244       -1.91426301888864       -0.00263410662215
H            0.93229924770631       -1.91524678428353       -0.00270575544535
H           -2.14649087085406        1.59957968479392        0.00076232870736
H            2.14346524792632        1.59809458645626        0.00064388483406
H           -3.05766890962205       -2.58007076317212       -0.00405241120999
H            3.05027184047603       -2.58243890873631       -0.00434660320267
H           -4.56721534749288        2.12027198768551        0.00180924534491
H            4.56482543288538        2.11624832061689        0.00155242409866
H           -5.48216502265874       -2.05329249193247       -0.00289586920919
H            5.47543056783016       -2.05824629250026       -0.00333675518272
F           -0.00168855893703       -3.29169741536929       -0.00192658358249
