299

O            0.36212827485953        8.72052829662877       -1.25090631255143
O            1.08990561026246        3.38977252778192       -3.94193748528260
O            1.72338049305141        4.55022415666891        2.14275829727248
O            0.59855441507454        9.87092442049791        4.74968843948700
O            5.95438289581836        6.74674110297667        4.93599821688896
O            6.51530811085848        1.18878716911662        2.63139825425261
N            1.69108969223123        7.49704080045469       -2.67520868387189
N            1.03836956182092        6.58261078689126       -0.76031197912514
N            2.26105770393500        5.35769048155043       -3.65413470051639
N            1.22074780501552        4.45949195610285       -1.91628256282955
N            1.43202695681244        6.76507611136049        1.62786078092156
N            2.75785392669661        6.23263100729024        3.32265223035986
N            0.93013331288734        8.87542534714335        2.70093978865932
N            2.29594103679033        8.36787411733479        4.36837329083095
N            4.91851351044728        5.17820634893104        3.61721043609183
N            7.07066881643373        5.60038400845016        3.28752576409713
N            5.10327635875800        3.00686086103649        2.58804915781421
N            7.29531857998678        3.34093750837116        2.43775479895334
C            0.98941111890116        7.71314117364199       -1.52279428028947
C            1.49191398779179        4.30487011122569       -3.24700296514223
C            2.49576531736912        6.28644677629276       -2.58776099174889
H            3.55716740056985        6.54746573741286       -2.51065421413595
C            1.90801003870478        5.58607960331915       -1.33700480999353
H            2.65460093511215        5.25230066251963       -0.60033509062027
C            1.95850069107042        5.73125090178943        2.33975676178791
C            1.20946341089868        9.11786094212916        4.01212311508732
C            1.92523093843112        8.05006981750286        2.07659247862911
H            2.40771411051053        8.57860612777118        1.24386980330187
C            2.86945651369756        7.67734747595462        3.24779095059523
H            3.91768962202257        7.96836084706608        3.10445923100170
C            5.97473153235762        5.93663485202806        4.02609375264245
C            6.32455461405396        2.38889663651847        2.55721959056989
C            5.22361535865635        4.42789449150165        2.41570896421969
H            4.61033798594609        4.78496638785061        1.57708759009430
C            6.74813048121759        4.65745130479854        2.24386563999816
H            7.03698082662905        5.06532105266928        1.26196407789723
C            2.95060969565937        5.37500116537859       -4.93018946310534
H            3.28109697162010        6.39944286881841       -5.12057984796675
H            2.22715094559403        5.07885530485004       -5.69341281330882
C            4.15151921397106        4.46109148452433       -5.01170364899936
C            5.11719798237088        4.42700080052722       -4.01254013151342
H            4.99494153357811        5.00880146247855       -3.10998137642195
C            6.23210326120316        3.61669029634493       -4.13408779114026
H            6.95724790224465        3.58007294595277       -3.33228772274909
C            6.38815994107505        2.80120745891073       -5.25041833920268
C            7.50720976573564        1.82413572045521       -5.32219342918849
C            5.41554236799830        2.81939790642592       -6.24448027524092
H            5.52516789373980        2.16231291315535       -7.09292054777003
C            4.32374091150381        3.65628100116867       -6.13245585598616
H            3.57546886332896        3.65945439348642       -6.90897057072241
C            0.39577253883869        3.53592583886889       -1.17693741390286
H            0.92164436340559        3.22983404596908       -0.26697022420052
H            0.26690456262848        2.66626050618643       -1.83066985391342
C           -0.94901502018703        4.12029748756373       -0.82778347162612
C           -1.56304657843937        3.79128320227325        0.37803180850681
H           -1.09695791160836        3.07395783634860        1.03538907647552
C           -2.74214543499218        4.40493911810009        0.74759035247632
H           -3.22286459036239        4.17391532886389        1.68570434908071
C           -3.32553254280174        5.37021559226336       -0.07373721897315
C           -4.53676800339645        6.04990352772545        0.44051888422513
C           -2.74442842408104        5.65362807779697       -1.30909136519029
H           -3.20165410929954        6.33898161354981       -2.00567762514411
C           -1.57213505045746        5.02434182994197       -1.68058734870675
H           -1.12365078236800        5.24333080992105       -2.63756759387134
C           -0.10984993831870        9.57972418556849        1.98681524583565
H            0.11449722347806        9.53010099189707        0.91681902618687
H           -0.07485255354802       10.63422273434301        2.28478756398764
C           -1.49163112560748        9.03981851263966        2.25735711006219
C           -1.70522600919244        7.85056442349480        2.94456073431067
H           -0.86480049393739        7.26392427574669        3.28453327365453
C           -2.98904092459203        7.42515621260160        3.22799688111995
H           -3.16486522371911        6.51821259331994        3.78650162077002
C           -4.08949616946640        8.16137582332484        2.79915114858540
C           -5.44758262990074        7.70979065793168        3.19885526037666
C           -3.87998572129118        9.33729670537356        2.07913134841403
H           -4.71396634893372        9.94380518847145        1.76168365411431
C           -2.59397633976589        9.77107829861142        1.82386793359403
H           -2.43249812563187       10.69728314976641        1.29493324781773
C            2.95110814070983        8.49330280112530        5.65276865303621
H            2.70277504188705        9.48968801586459        6.03478220688269
H            4.03063194942542        8.41996860793136        5.50170676258716
C            2.48922082393421        7.46336877423605        6.65245860386927
C            1.13048495621954        7.24773644672383        6.85443855009129
H            0.41464977166747        7.82020158267893        6.28408933811555
C            0.69465426150490        6.32757081220113        7.78839474122721
H           -0.36600205637448        6.16037359007191        7.90118076144405
C            1.62194544026161        5.60148711991980        8.53518688690625
C            1.21568240388087        4.59247196095614        9.54544802596759
C            2.98408792174144        5.80169520328288        8.31854396411969
H            3.68881296280210        5.22209990809233        8.89462728562944
C            3.41368700865710        6.73075606577908        7.39077741304627
H            4.47029907943416        6.88656325776732        7.23060439599814
C            3.89310099869175        2.26431122740581        2.31816261694582
H            3.03621987862934        2.84562731681799        2.66607082687351
H            3.95579617681191        1.33686977131713        2.89465353093381
C            3.67058585533692        1.92412591385730        0.86525644271351
C            2.59333101774963        1.10366625035021        0.53749848951416
H            1.95323083017001        0.74068813553464        1.32627733225749
C            2.33571058768376        0.74766381525098       -0.77158028526302
H            1.47669507576613        0.12759806001837       -0.97746123959643
C            3.15967139892859        1.21462373344716       -1.79592360984859
C            2.98004541421536        0.88213627101523       -3.23266211159733
C            4.22443898205806        2.05070030328910       -1.46945532466449
H            4.84978201323561        2.41050590133515       -2.27182039622167
C            4.47946863847509        2.40028149104567       -0.15816414852036
H            5.31941766341935        3.04408204632883        0.05633016958501
C            8.68531834530242        2.99945186537155        2.22212899549410
H            9.10618132139984        3.68889760598285        1.48633318255508
H            8.69793379730337        1.98030027344454        1.81801737815591
C            9.50916011087858        3.02553228677431        3.48404045287000
C           10.78740008137898        3.57449509339691        3.47088548709656
H           11.16572908378775        4.01429375883654        2.56054655357191
C           11.56898650545664        3.56893175361208        4.61105441552283
H           12.54493817453569        4.02876929584794        4.57585282223819
C           11.07129353208273        3.02235772768100        5.79296788790238
C           11.85128746200532        2.99631783039986        7.05551965805520
C            9.77974936124912        2.49657592364392        5.81251730587884
H            9.40438138963989        2.08636888445141        6.73733161317280
C            9.01161170687288        2.48756125337214        4.66600069730108
H            8.02433348000106        2.05261376353233        4.67790525124357
C            1.93197103679970        8.57098554765802       -3.60590006946262
H            1.07681979391157        9.24677734991830       -3.52976753713624
H            2.00245649595695        8.16195720274415       -4.61640382246330
C            0.48662799890437        6.53647655880467        0.56839669336631
H           -0.30264972993924        7.29013122561118        0.60359727192099
H            0.06986088935632        5.54398475820877        0.75303959007408
C            3.59108347204579        5.38454304780463        4.13609737431614
H            3.70760073786443        5.83388844333782        5.12465246591696
H            3.08192496515082        4.42135462093865        4.21851694823209
O            9.88599777614594        5.81184065969447        1.06750361604118
O            9.18998653737127       11.45080907999463        3.50346670798197
O            8.76977243615584       10.24395834107145       -2.12787905552077
O            9.05642539698827        4.88008574900091       -5.07020268925200
O            4.41678598224441        8.23526856986342       -4.93864985771189
O            3.40771080522993       13.73069951229807       -3.01093079762171
N            8.67936884195100        7.21322285468918        2.44349971902581
N            9.40621677966987        7.98334077672251        0.49415086972949
N            8.10051209757813        9.43054208277001        3.28699994056715
N            9.39676971470464       10.13733810002162        1.63408922539207
N            9.00188108016908        7.96724271152932       -1.88803046423495
N            7.49919995158959        8.74666308381011       -3.32280713456190
N            9.01656951775263        5.79046686873712       -2.95769038919624
N            7.71055561457571        6.65056453058774       -4.52755143359543
N            5.30893731716328        9.78237289915438       -3.49237286047172
N            3.14627407723423        9.30699330014022       -3.36398722839224
N            4.90916968772320       12.01532560881911       -2.67566376524583
N            2.72838315295786       11.56895510974972       -2.64879492730163
C            9.36610024889910        6.88744427214354        1.30454113396761
C            8.93365633195915       10.43139046566332        2.87481665623182
C            7.92671780763136        8.44836617630050        2.25434933357088
H            6.87029723555708        8.19830855967474        2.12534767357758
C            8.63222168095654        9.06703463664728        1.02954672303008
H            7.96461971689978        9.47147821258980        0.25838043879376
C            8.43957792742231        9.10566298515041       -2.40162756336074
C            8.63474382305522        5.69837993355753       -4.25809105896108
C            8.25189685514120        6.78639827802124       -2.25610714964205
H            7.75772539729362        6.34909388385678       -1.37543086233078
C            7.27217830028535        7.32288978254011       -3.33043030691232
H            6.21409267769506        7.10492534832381       -3.13008235427547
C            4.30497881122235        9.02661425259339       -4.01571014713075
C            3.65410169283068       12.55683655144333       -2.79694560661767
C            4.85195890536948       10.60671132268501       -2.38610162907266
H            5.40716905739397       10.35829275727257       -1.47259148299528
C            3.33020055838602       10.30215649378563       -2.33181317393242
H            2.96442882726742        9.92140890618414       -1.37016677967061
C            7.16187616743398        9.62467880320363        4.36843469513485
H            6.88408161201613        8.64602076272266        4.77252903363105
H            7.68626099083126       10.18782214889295        5.14455261265504
C            5.89875893004006       10.36555441122933        3.99371687672785
C            5.41386290741648       10.45148789962682        2.69366423846305
H            5.94238749546438       10.01323875252302        1.86159906036750
C            4.24035546337546       11.13220604107495        2.42416957857575
H            3.86517988422190       11.19637476598042        1.41286553197625
C            3.56403735446220       11.79281671963460        3.44068520940226
C            2.39124325150860       12.63312956093981        3.09555622817263
C            4.03515008394157       11.70280953759087        4.74828054693524
H            3.50341273737058       12.19525374484376        5.54780447231720
C            5.17708068058640       10.97733794315761        5.01733157904033
H            5.53800078846969       10.90912364860655        6.03123086032701
C           10.42640421363057       10.88309732763960        0.95546866049913
H           10.08871134380704       11.12019529547450       -0.05848311546842
H           10.55857226807216       11.81760188079247        1.51198892794928
C           11.74904571803985       10.15409494803458        0.90488389436102
C           12.71689223922037       10.56320634487831       -0.00866382258554
H           12.50299956851371       11.38436137104166       -0.67529244284157
C           13.94658744913561        9.93715523232382       -0.06143910272175
H           14.70215985147687       10.25691567748726       -0.76070909504840
C           14.21510658930716        8.86573166510907        0.78645733892765
C           15.52259592401709        8.17194113808709        0.75947984210960
C           13.24381349129595        8.44268051603089        1.68936905125543
H           13.46727154543869        7.61308624088569        2.34236067686239
C           12.02891123890493        9.09470008927457        1.75997864572584
H           11.29701664564803        8.77860275342209        2.48741592448683
C            9.90394574244452        4.83711514779916       -2.31349006079278
H            9.61369508121850        4.75574613312994       -1.26387547367509
H            9.76324204922247        3.86689982154325       -2.80368071825113
C           11.35851499483056        5.22931524341170       -2.41968058118547
C           11.92829904817937        5.45833952790704       -3.66721402579358
H           11.32805083695686        5.33693993948054       -4.55489474413694
C           13.25682125075803        5.82077268406943       -3.77602104824424
H           13.67171418645744        6.01933283972245       -4.75241832775688
C           14.03376609012700        5.97383856647168       -2.62878212215491
C           15.45130730741066        6.40651499450672       -2.70062012482137
C           13.46544727757652        5.75139064260131       -1.37719003905470
H           14.07544888558832        5.87489464493578       -0.49486537882058
C           12.14172566269285        5.36598826338589       -1.27742758081039
H           11.71067634837765        5.17803073462831       -0.30563407308232
C            7.02998088863028        6.72255309424953       -5.80170861671125
H            7.14886645922403        5.74545569699342       -6.28378838819244
H            5.96799633847141        6.90042797112069       -5.62659333958669
C            7.59571861959531        7.78745262572193       -6.70555461062343
C            8.96608838885850        8.00902841524657       -6.77575149646434
H            9.62981014548836        7.42447200384583       -6.15815735686820
C            9.48372691218290        8.95867382472188       -7.63582607266576
H           10.54907250511452        9.13150741281655       -7.64615550453378
C            8.62779820551793        9.71055660702460       -8.43930659598654
C            9.12282990091878       10.74760592377874       -9.37902099404497
C            7.25130918727805        9.50974847860437       -8.34848127219387
H            6.60046186572142       10.11246323680915       -8.96281137759990
C            6.74155361234774        8.55159036066870       -7.49485964612923
H            5.67606484642741        8.39423370644211       -7.42640558791354
C            6.04083279003418       12.84994958113961       -2.30765277276181
H            6.96180319180485       12.37673659513529       -2.64789021146721
H            5.89709140279400       13.79767156917771       -2.83410880113810
C            6.11321291130582       13.10312422654155       -0.82120143271903
C            7.21170085677950       12.67949676264762       -0.08320283618377
H            8.01489315752228       12.16380496856455       -0.58820002446857
C            7.28344076773080       12.91341614675687        1.27867192051908
H            8.16066887768235       12.59953099365366        1.81819184501522
C            6.23283450162905       13.54806748351176        1.93799191745022
C            6.17391899240953       13.74245016402923        3.40817874509872
C            5.13913953014171       13.99111779363527        1.18997765864995
H            4.33735469393475       14.50741079690595        1.69541583425521
C            5.08485947013616       13.78027018090877       -0.17129427737590
H            4.24182813091807       14.14528084997890       -0.73754747348725
C            1.31821918506034       11.84492418242399       -2.46218255970572
H            0.93976246888600       11.18958836126339       -1.67298929826146
H            1.24026313878152       12.88732127966654       -2.13236929314903
C            0.50670961438166       11.67385098440139       -3.72028785658111
C           -0.68333834686513       10.95193430511036       -3.69596345015397
H           -1.00826369576865       10.49553730220271       -2.77275563636966
C           -1.43636378596148       10.81567886481020       -4.84527187114985
C           -1.00515575093180       11.39621424314996       -6.03696050383370
C            0.18663001699123       12.11922224089662       -6.06378502440228
C            0.93186398012152       12.25656784202530       -4.90975251022841
H            1.84515605695354       12.83161889220298       -4.91755680713227
C            8.35292575230759        6.23974077581673        3.45400332415171
H            9.14407605848756        5.48538332906926        3.43339955533482
H            8.32671939501991        6.73319731247966        4.42912387166103
C            9.97601752496352        8.00599775632802       -0.82868006190437
H           10.64179976665139        7.14528734465945       -0.90922110135224
H           10.54585869459224        8.92851889883608       -0.96315673756313
C            6.65557205014717        9.70118350858390       -3.99953643698512
H            6.57825244977196        9.41909239080259       -5.05433562097734
H            7.14580079799295       10.67093728760121       -3.90330043694534
O           16.50167843835461        8.91054877128853        0.26987731268166
H           -2.36351670414751       10.26362206014388       -4.84695497100976
H            0.51380686027801       12.57293984105026       -6.98536312070146
C           -1.83407888588354       11.23382289298322       -7.24836761608837
O           -1.33951545700505       11.82825904329888       -8.32540257440533
O           -2.88180379639408       10.61368660599494       -7.27641823090171
H           -1.91102107629977       11.70414035018078       -9.10762341355352
O           15.69100551619313        7.04416904900444        1.18705827931365
H           17.34193563773092        8.41845479750735        0.21700503111587
O            5.18936181008334       14.23662581018226        3.93551105318473
O            7.16989369603532       13.35060298505179        4.18323018871224
H            7.93374563066047       12.89139231691236        3.76969978148243
O            1.54327749920075       12.28510926027805        2.30026522764435
O            2.32747807154545       13.82385018188097        3.67962095281543
H            3.15423811478400       14.06621810267126        4.14910228428793
O           -5.20205627792506        5.59982001499514        1.35029808627605
O           -5.64129196269614        7.07891511660097        4.21808228128012
O            8.45447844516288       11.70621236683312       -9.70550307612320
O           15.96205427339666        7.11615671083401       -1.86073395719593
O            3.56993249155324        1.47599829815315       -4.10988747078295
O            7.33110284537284        0.66733325863563       -5.64775289065141
O           11.32366960455784        2.94667953484830        8.14738524595204
O            1.91580374631997        3.64655124385481        9.84119997560488
O           16.16864345814900        5.99120773764497       -3.74299039910473
H           15.69586245781762        5.36804348415805       -4.32450479916781
O            0.03733501797438        4.75580627208265       10.14443455830170
H           -0.41963379203484        5.57981736411983        9.89636987256585
O           13.18000310459559        3.02142588843252        6.96561253069059
H           13.51413532775581        2.98746242371776        6.05086362495140
O           -6.47297292826662        8.07304596054596        2.43438931067481
H           -6.20089694263021        8.43260203192885        1.56963599972870
O           -4.87572536336199        7.22468447032402       -0.09547646753397
H           -4.31903895351165        7.48986439451412       -0.84907179052704
O           10.34877691157153       10.59500133436161       -9.87751537080984
H           10.77486759126500        9.75565683418387       -9.62509542524712
O            2.15989693407336       -0.11788718027294       -3.55032475332311
H            1.78582418720642       -0.58492590555535       -2.78110318788679
O            8.71798379166782        2.24001769127225       -4.97012331035854
H            8.83161640468487        3.23121055124828       -4.99162025510307
Re           5.08740929790425        7.38748355075364       -0.11557715665771
O            5.33504331310847        5.89970256190486       -0.87172247407435
O            3.56794807682825        8.00308895771436       -0.49139699908512
O            6.27543651057179        8.46130706508292       -0.64640850560134
O            5.24952136050077        7.19215969489059        1.55017631959899
