79

I           12.44099866352489        5.58192762918912       -5.23558380443840
S            9.18355366740029        2.31145645844017       -8.11621642117630
S            9.41559284747716        2.52303503250164       -1.89997524729674
S           15.63757427443490        2.64017248313184       -1.96257513117635
S           15.69996623475398        8.85132761485835       -2.35604901245746
S           15.46757843082683        8.63916942437119       -8.57226923179003
S            9.24557407122286        8.52259933018794       -8.51019076547633
N            8.77293865580825        4.82630284216044       -7.31058726761778
N            8.82118366686627        3.34976653544401       -5.68075039502574
N           10.28040910418095        1.99050509519131       -4.37170980612552
N           11.87063061013639        2.07193505396125       -2.85396993144976
N           13.17059462046614        3.57218421501711       -1.53052460099675
N           14.71989100361642        5.12972793575556       -1.64338567671590
N           16.10972028445157        6.33634109518861       -3.16167747475256
N           16.06149896311870        7.81282067118577       -4.79155578907133
N           14.60279940539635        9.17253539363544       -6.10070478991787
N           13.01261098018508        9.09109690496109       -7.61848743534332
N           11.71263080491953        7.59039652572468       -8.94140557620043
N           10.16327977219977        6.03292447387416       -8.82840042338169
C            8.94313017916168        3.52622570429529       -7.00884819604136
C            8.63951067276903        5.64194624870599       -6.11681262039968
H            7.70780389623722        6.21159342287387       -6.15774009934358
H            9.47234120204429        6.34748101838813       -6.04733884501095
C            8.66670515751620        4.61300803594989       -4.98190456538086
H            9.50956024000797        4.77504731659264       -4.30392197253476
H            7.74711382222720        4.60145340492325       -4.39126273814312
C            8.99086124774334        2.10763760535779       -4.98619920376756
H            8.24041869977973        2.03441782813843       -4.19141174497637
H            8.86680060861253        1.30220575108284       -5.71845895631835
C           10.55040504983638        2.21082150555506       -3.07225521828450
C           11.49248758180225        1.79763073770180       -5.14751349488167
H           11.59611486881205        2.59420482770055       -5.88987683654172
H           11.44930123094042        0.84047690759989       -5.67326383613126
C           12.60003194816602        1.85362402849535       -4.09031180511658
H           13.17670125999394        0.92760762429088       -4.02360210723175
H           13.29430124851522        2.67950742291731       -4.26971462930222
C           12.53570859067031        2.28925527237747       -1.60307911695759
H           13.31448447236589        1.52967632398254       -1.47343117457333
H           11.78078329187723        2.21608186149857       -0.81250657678002
C           14.48003666358126        3.80870495234903       -1.72948859440567
C           12.41350708972122        4.80534600687795       -1.41079450498092
H           11.86253421746865        4.81350632879898       -0.46699135813054
H           11.69404404682089        4.88775066734681       -2.23057107421753
C           13.49296948280548        5.89008969706351       -1.48647576719914
H           13.34697786631734        6.55256733555484       -2.34448611777801
H           13.54864088609654        6.50346959362395       -0.58358717212263
C           15.98885882130874        5.76185066095171       -1.85410476018124
H           16.76243514727691        4.99694940632110       -1.72451010248601
H           16.11214065475837        6.57188900690072       -1.12691648372625
C           15.93982406558958        7.63645262941267       -3.46342290109469
C           16.24265811416791        5.52061550384919       -4.35544736403577
H           15.40958177620961        4.81535136876663       -4.42473274015012
H           17.17418151043207        4.95065809231306       -4.31468450717183
C           16.21555111313727        6.54952002356671       -5.49038447070531
H           17.13504972093189        6.56081910047508       -6.08117727681703
H           15.37254782129188        6.38766750632869       -6.16822858221990
C           15.89226452293143        9.05500288914581       -5.48612240308096
H           16.01652922302290        9.86039723808451       -4.75385878907708
H           16.64278663094506        9.12798237364621       -6.28086023496074
C           14.33279451037414        8.95193918605619       -7.40011160754697
C           13.39073296508032        9.36585047224337       -5.32498780572309
H           13.43409844894514       10.32313152407887       -4.79948481226239
H           13.28691899826346        8.56948750902554       -4.58242378083362
C           12.28321267970605        9.30982462971421       -6.38221483230676
H           11.58878188078485        8.48411408727796       -6.20264562113224
H           11.70672573898498       10.23593662497520       -6.44915481759356
C           12.34752369915845        8.87334923779936       -8.86929746090427
H           11.56875238753486        9.63288570437359       -8.99920407029716
H           13.10244574007107        8.94624588473915       -9.65990133583614
C           10.40313687060904        7.35396910578275       -8.74266636254792
C           12.46971899884895        6.35718223863350       -9.06057820955790
H           13.18895798383695        6.27499619812984       -8.24057999021296
H           13.02095269071515        6.34872644096305      -10.00422606754399
C           11.39021113446750        5.27248949277729       -8.98486125036339
H           11.33471607194960        4.65886887413801       -9.88759815030551
H           11.53600524267509        4.61023072830509       -8.12664818967501
C            8.89420646093911        5.40087400568301       -8.61808447870610
H            8.77108085149957        4.59088847702319       -9.34536270148886
H            8.12072075022827        6.16583335131196       -8.74785119665578
