33

O           -0.00168296907342        1.06746604348255        0.00140910566013
O           -7.35311105760964       -0.45035147679638       -0.00412538196769
O            7.34818609758882       -0.45782289516847       -0.00381798998132
O           -6.84314643806759        1.63730053683431        0.00014666587798
O            6.84034243554858        1.63034728035732        0.00061100543116
N           -1.13579574831513       -0.92911736807432       -0.00031166559776
N            1.13038792097052       -0.93027280117472       -0.00039035548029
N           -6.52569587509522        0.45381546750353       -0.00032070424686
N            6.52168838414403        0.44719093228265       -0.00242564760475
C           -2.44889627029282       -0.53284537069757       -0.00031828111042
C            2.44389007549289       -0.53533413591984       -0.00047435302335
C           -2.85337516113745        0.81059742391207        0.00179711030179
C            2.84973186184430        0.80769775858547        0.00165220851356
C           -3.42825652143546       -1.54131975003493       -0.00244047709416
C            3.42222633514093       -1.54480102724441       -0.00263485300504
C           -0.00230539889522       -0.14730605573544        0.00043793359610
C           -5.15263733989235        0.11909334446972       -0.00046207532838
C            5.14829068659713        0.11386203608464       -0.00120879827872
C           -4.18940320958095        1.13037940765651        0.00160178235496
C            4.18608409785325        1.12612483681327        0.00131555614906
C           -4.76246689234118       -1.22360388831412       -0.00264687698485
C            4.75675737406792       -1.22843828836307       -0.00297506982683
H           -0.98760931081321       -1.94429274875273       -0.00150831554143
H            0.98116594971180       -1.94529424016993       -0.00158606967145
H           -2.10607982704981        1.58550174134488        0.00364097880758
H            2.10322155371615        1.58335937722572        0.00345652759777
H           -3.11582551133187       -2.57442792929308       -0.00395067263412
H            3.10874995751216       -2.57759185999501       -0.00419525377138
H           -4.51165388049381        2.16006102699830        0.00329829778581
H            4.50937928435319        2.15547987275669        0.00280494882911
H           -5.52049189379644       -1.99137417426607       -0.00435509030475
H            5.51400370892830       -1.99697440316917       -0.00492398000697
Br          -0.00437396849458       -4.10447830833594       -0.00410278290793
