195

C           -2.19388640336255        3.27196166525529       -2.78369833976311
H            3.05018632446100        1.79161015283157       -0.47941300177274
C           -4.47320428933791       -3.93300548896199        1.27948061388308
C            5.71399085075721       -0.10538054904768       -1.21162096359060
C           -5.09574895905333        3.18585673170967        0.97636462477244
C            3.01751996322704       -1.52860391853388        2.82021476609016
C           -5.76447686573163        1.83799083617196        0.72535017912858
C            0.91576596087653        4.62227467213010        1.90806241148818
C            4.39500804314148        3.75879885676049        0.99381586675172
C           -2.02075417176313        4.56512479059819       -2.01368908001920
C           -2.03530647941755       -6.41873505755854        0.03213244787847
C            4.14357751322643        1.70918913597018       -0.46238605642648
C           -3.87121026192824       -4.95320824302504       -0.68166438400311
C            2.33634892269749       -2.89264737475979        2.83260565587252
C            2.40470917437301       -4.74865649595992        1.12280430517425
C           -0.56296785356903        4.71997566268502       -1.59193047642432
C            5.32483812719058       -0.95098584982433        1.88844714759091
C            2.28710671848657        4.12857709878936        2.36053044324989
C            4.99218254209966        1.47986774456846        1.68921396580052
N            1.29967949883733        5.49503189755949        0.80978707292024
C            2.44375081807948        5.00490121542345        0.24692473971872
N            4.96643160994116        0.23179656095653        1.15168589377944
N           -0.74328754911108       -5.81816574742005       -0.17304854896119
C            3.95081559995598       -2.85699555251891        1.20630213593338
O           -7.31264082993716       -1.29150035742143        0.26285926699480
N           -4.74711532999570        3.57688737311092       -0.37968851444322
N            4.24095234233714       -1.86131536388007        2.10384419885159
N           -5.72943983750624       -2.08192580855920       -1.21065332486421
O           -5.79874840016375        3.31757293342565       -2.41283707323317
N           -0.69798086975015        5.72990972426872       -0.55402422796630
N            4.66303722996510        2.37718282429582        0.71473614971209
O           -2.29072986900537        6.12978657907531        1.06545690247857
O           -3.93003461128593       -5.35241480183642       -1.83450529090008
N           -4.60233421954370       -3.91286648597189       -0.16785796876473
O            2.93200015061876        5.36562200874914       -0.81326673653220
N           -6.64416217907771       -0.08024249680380       -1.58539279074253
O            0.05155433761663       -6.12421383567770        1.97188577349209
N            2.99151938188157        4.06581063933512        1.08878037899459
N           -6.41435110074101        2.10208982683950       -0.55011251568564
N           -3.09887545954598       -5.49168186227822        0.31436806230967
N            2.74720935833014       -3.41739318544185        1.54124127232775
N            1.14464870482990       -4.79900453589653        0.43768800098482
N           -2.70363440703432        4.76826828593471       -0.74641764503700
O            5.30649509465606        1.75407841308800        2.83746748795346
O            4.66699211285437       -3.21200164853677        0.28165734109899
C            4.57569735138846        0.24536458929749       -0.23701809135312
C           -5.33461241607054       -1.69132552226393       -2.55358040979595
C           -5.56184173339317        0.39428608308984       -3.87882118072603
C            0.28767032933939        4.98948231935215       -2.81765853430330
C            0.40407990338597        6.37310356058449        0.10659167602696
C            0.13530280222370       -5.62343871571868        0.86072845871171
C           -6.62443553146833       -1.15681977395088       -0.73701891056325
C           -7.27252936959430        1.16284969447206       -1.22316462043524
C           -3.95572260706912       -2.03422933303872       -3.07949606905636
C           -1.92569155997101        5.58813245886296        0.03306825648286
C           -3.09769673440858       -4.57249560699709        1.44286186479077
C           -5.80519139087869       -3.46159661406786       -0.81404718255206
C           -4.13907560177817        4.84445563007765       -0.67340233333785
C           -5.66133306421325        3.01824231118209       -1.23665905941965
C           -5.49641152614483       -0.17665396448176       -2.47562703305134
C            0.15931404776735        5.17767463976307        3.09799102442117
C           -3.89398635064882       -1.45179535059108       -4.49778966538333
C            0.86615000036866       -2.72229219033938        3.15405639821432
C            3.08336620258001       -0.97984157276148        4.23035623935908
C            1.04285271564937       -4.64849171171110       -1.00317830136754
C           -2.95434245087148       -5.09382900689692        2.85974561826131
C           -4.02256049868282        3.03972947044746        2.03567454479854
C           -0.45695927623039       -4.83554254182222       -1.20810544299031
C            1.30660147407856        3.32750339751262        4.43990590984549
C            1.49844764746366       -3.36885357934622       -1.67254092063246
C           -1.32113711585160        3.41294458512461       -4.03824116001779
C           -4.53762034228495       -2.64522246978234        2.07567159306604
C           -4.21967149789350        0.04678387618879       -4.53784372857739
C            0.13894719071266        3.74994246153553       -3.71010155710521
C           -0.01920808953926        4.00208884767522        4.06732651658828
C            0.81397056093939       -2.11789307222573        4.56337177977436
C            1.20904011985659       -3.55090152254273       -3.16831602586887
C            2.11662765603287        2.88819130651573        3.21376228194331
C            1.62506187419419       -0.82176982129510        4.68164090404628
C           -0.73109571243786       -5.14786542344742       -2.66589685354758
C           -4.75219269939166        2.59522157665398        3.31059832204861
C           -6.58691353635814        1.44826732582975        1.93804249470591
C           -4.35121731125980       -3.05518479144627        3.54285322461405
C           -0.25220307977764       -3.92039213191035       -3.45345559068541
C           -3.06892432987859       -3.86525386086977        3.77308764667492
C           -5.59309522691131        1.32948855487992        3.10155085179481
H           -3.23903053786275        3.11647561681604       -3.05616791492418
H           -1.86150463376751        2.42817030760001       -2.17718449935022
H           -5.24199821784298       -4.61664943402193        1.67812298951338
C            7.09884036565367        0.34638160297623       -0.75066828088312
H           -5.84672175856626        3.90167585063166        1.35221846593840
H            2.42969605228716       -0.83242236290072        2.20401512394828
H           -4.98992133468183        1.06642627744188        0.57422442732000
H            0.34260801934556        3.77368405227945        1.49822953838023
H            4.89916329375700        3.98604014320897        1.94086041884881
H            4.79907959178398        4.37126829290726        0.17822914286672
H           -2.29668302203504        5.39766509286324       -2.68390388595596
H           -1.92765243400761       -7.10451332262141        0.87776526515398
H           -2.32359562679631       -6.95726325215585       -0.87546760556053
C            4.72971711536512        2.23615111720595       -1.76964965445880
H            2.78923359835456       -3.52621548377395        3.61559332107445
H            2.32009434468455       -5.40349475936599        2.00134104654434
H            3.20810488650417       -5.09269477833198        0.45738103636095
H           -0.21056769075609        3.78248875678394       -1.12918137084978
H            5.70493588890595       -0.60311142491004        2.85430112015825
H            6.09035575928175       -1.51816849894022        1.34645348502291
H            2.77477295271583        4.90365766458668        2.97751390936844
H            3.73702888335779       -0.44198846508584       -0.40383436663482
H           -6.07754755940250       -2.10192274032642       -3.25843009545912
H           -5.69509208343605        1.47671569227404       -3.85158493033188
H           -6.39147884568038       -0.05086037314048       -4.42882372151438
H            1.33431081930924        5.13331963487668       -2.54327457057315
H           -0.06638598175598        5.88312517612057       -3.33313389264036
H           -0.03266086820534        7.07798499571422        0.82119469914198
H            1.01015803570721        6.89594750725756       -0.64023733291697
H           -8.10744860437025        0.91210304934163       -0.56257059444727
H           -7.62667878178601        1.65726530556992       -2.13229693392300
H           -3.79950417401707       -3.11401401096159       -3.09831032935082
H           -3.18843347463371       -1.58770189848719       -2.44502261355830
H           -2.31363547462583       -3.81297193637524        1.27836110013005
H           -6.65085824800500       -3.55680562329616       -0.12065480729461
H           -5.95563099636971       -4.09008179636755       -1.70151110568108
H           -4.38385259012697        5.56374371378543        0.11922743902670
H           -4.53741902082035        5.18016564041222       -1.64073376289640
H           -4.61910272875379        0.26302833824391       -1.97007809369531
H           -0.81268588100791        5.56920532832281        2.79390229220168
H            0.73231372331987        5.98043120023098        3.56379575099250
H           -2.89690057109237       -1.60824918924930       -4.91057224046995
H           -4.60482103859310       -1.99213007726743       -5.12570287219631
H            0.40482738060190       -2.05369243380371        2.42649630664729
H            0.34638609750151       -3.68135099249112        3.12505022820844
H            3.59163116151606       -0.01415094066125        4.25068752614958
H            3.61974916482703       -1.67157041488147        4.88159523634412
H            1.58573233740981       -5.48789953005039       -1.47143629222686
H           -1.98624348175140       -5.57693313520313        3.00069354632259
H           -3.74262982041355       -5.81533429794439        3.07687016935594
H           -3.50053562820152        3.98434523829786        2.19776149531350
H           -3.28809865249921        2.29377957141594        1.72943855798285
H           -0.97866323087353       -3.89607584815450       -0.95709450004182
H            1.10117400104597        2.45806608198969        5.06504269651770
H            1.91395036088456        4.02369908372978        5.02204861628433
H            2.56426169509839       -3.19818028662716       -1.50671592490290
H            0.95527404289761       -2.51398882667677       -1.26850664166684
H           -1.34682868107190        2.48236706583323       -4.60613598224779
H           -1.73970799663592        4.20214675643631       -4.66560319178754
H           -5.49626492052046       -2.14368405801229        1.93293972211649
H           -3.74270279638862       -1.96748990293495        1.75950228450542
H           -4.22927355874847        0.38142272101256       -5.57550767579298
H           -3.43017202265480        0.59587731588069       -4.01974089270855
H            0.68972748173044        3.90146236542721       -4.63911410831117
H            0.59173892270490        2.90080324759532       -3.19328163717388
H           -0.51030712858990        4.35125916756682        4.97592704686911
H           -0.67269347081855        3.26511738882917        3.59563607188601
H            1.20398780924577       -2.85325511154352        5.26980416610732
H           -0.22210730096467       -1.90943878506071        4.83233369239958
H            1.86124195298201       -4.33856137923554       -3.55153904211295
H            1.45411388769850       -2.62832494279135       -3.69644722473688
H            3.08350981273886        2.48387035837138        3.51853085455816
H            1.58622686895182        2.11973500971932        2.65052262518523
H            1.15743350120214       -0.05529728621347        4.06036175346832
H            1.59888409335264       -0.47616510414888        5.71552302930887
H           -1.79630127023900       -5.31142514844570       -2.83582511647833
H           -0.18356778739498       -6.04089986740225       -2.96887148021282
H           -4.02225585702694        2.40991141559259        4.09909735789902
H           -5.40107007275968        3.40908276746948        3.63956847503720
H           -7.08856549625059        0.49323134192064        1.77554190241541
H           -7.33742416372307        2.21176706281458        2.14461664054628
H           -4.32243083352762       -2.16322475808630        4.16928130372757
H           -5.21325182207935       -3.65099727518069        3.84817491033086
H           -0.88878421691055       -3.07260953605115       -3.19148672803951
H           -0.36852390038727       -4.10662511877138       -4.52146394808813
H           -3.03074192949057       -4.18508446571522        4.81471441964622
H           -2.20493406647266       -3.22236444761530        3.59103619256143
H           -4.92579010656298        0.48914754027466        2.89882787263521
H           -6.13719561716557        1.10835859567051        4.01998208584314
H            5.70551606401277       -1.17378661490613       -1.42962272703449
H            4.01099048944043        2.81083875774106       -2.34826121718916
S            5.21729355165634        0.77329692188351       -2.72914095376255
H            5.61441122239906        2.84706390657707       -1.59107456507622
H            7.34369494314120       -0.15359308906942        0.18785601611811
H            7.07062818463312        1.41888439311989       -0.54720250259994
C            8.19478605539097        0.05122279934587       -1.77493544605464
H            9.08944566285344        0.60838764579626       -1.49013687032813
H            7.86576376033075        0.40438407064826       -2.75451857337504
C            8.54951824670783       -1.43244207210492       -1.85651746391824
C            9.64325319824517       -1.69043078137267       -2.89023074120137
H            7.66570075803144       -2.01076595267644       -2.12567785481667
H            8.89754309194595       -1.77399033935828       -0.87930636841358
H            9.75660105330178       -2.76526548418346       -3.05298418260774
C           10.99069204062139       -1.17989786734055       -2.45509688229353
H            9.39488692324254       -1.23563287894464       -3.84963206810285
O           11.82053347426009       -1.03049751532067       -3.48455878126721
O           11.32756773128359       -0.94431253347467       -1.31802380489630
H           12.70045039445023       -0.72208358906103       -3.20098576577253
I            0.72530600391865        0.44478800954390        0.19038615502476
