139

Br           2.03199094513246        6.26622997443281        6.95734033085999
N            1.96596299182781        3.16425550883127        9.86614342773477
C            3.08413766716843        3.11057387630466        8.94963889269395
H            3.51447689462488        4.11288419669694        8.81452912235329
N            4.09812909561409        2.16101680614294        9.32466480138877
C            4.99357112647349        2.32954181936930       10.44016973841798
H            5.97520813313257        1.94489957014929       10.16184217131739
H            4.64152285105039        1.77134688882319       11.31159183595468
H            5.06682865825433        3.38725179192739       10.68655889332637
C            4.13861219844781        1.10836852525698        8.47570284760119
S            5.16902343671904       -0.17066071650929        8.59752304424462
N            3.23018949683478        1.28325860154791        7.48827163372873
C            3.08168358988942        0.39093236994559        6.36723589166221
H            2.61108234807873        0.92383471278715        5.54319173249143
H            2.47596308312297       -0.47801645112575        6.63690436734316
H            4.06893922236391        0.03842631762224        6.06595236803593
C            2.46896698767081        2.48929365333560        7.67185950751310
H            2.51909605511774        3.12724903592170        6.77835576171851
N            1.08981523590411        2.25808820323092        8.04681062673041
C            0.80487971250887        2.73895793106455        9.29098248192210
O           -0.29559778946836        2.76647374051645        9.80772454963536
C            0.06251647504164        1.80465626155029        7.14795385471678
H            0.42377043978128        0.94846830425774        6.57371326920286
H           -0.79175934276122        1.52371263920554        7.76810161720346
N           -0.33536811493121        2.80136544408501        6.19000801088510
C           -1.08841897157039        3.99521330177558        6.50857875308087
H           -0.63149217164453        4.51721781790766        7.36111238395539
N           -2.48761137047168        3.75494591392657        6.74146008635019
C           -3.01403728741866        3.10344748066075        7.91322273083567
H           -3.93884710363035        3.60176477197150        8.20568664455387
H           -2.28662953749498        3.17067974319755        8.72004119373022
H           -3.24049975148331        2.05430490075676        7.70776270604229
C           -3.25638216957965        4.26620439683189        5.75239808836109
S           -4.89968698545978        4.17610861290290        5.68614795227462
N           -2.47381133333051        4.89699678638563        4.84644743228906
C           -2.98305802575737        5.62610981691601        3.71337062751965
H           -2.23936093459220        6.35147236061794        3.38888609605005
H           -3.89784807614146        6.14093326776124        4.00843957136875
H           -3.22249862158278        4.94961222394543        2.88927803365438
C           -1.07886073537137        4.78845291738203        5.17896660472849
H           -0.60926854382407        5.78055017935099        5.23657351342176
N           -0.32983708751713        3.92993180101377        4.28600985677540
C            0.16500437489349        2.82923078899526        4.92149964947598
O            0.91146767039689        2.00256269569597        4.43347588885229
C            0.07130325458806        4.28627569707032        2.95146506926340
H           -0.77779795054903        4.70800600070991        2.40899150174662
H            0.41855356627431        3.36649433822419        2.47562144286661
N            1.11340905222697        5.27704637794965        2.91633559187800
C            2.48919361290845        5.03829359588547        3.29487436658013
H            2.53500087311408        4.54419622815767        4.27553364128781
N            3.24167276833817        4.30420013999150        2.31241152503801
C            3.05664742228854        2.90375961532268        2.03092220387258
H            2.42166420415353        2.76168095668845        1.15269131962086
H            2.60261276849565        2.42000044804041        2.89394747268187
H            4.02990045379100        2.45722320266389        1.82460454016137
C            4.17303972817652        5.08012722134093        1.71139357678885
S            5.20593621001144        4.58154338888511        0.52940681339606
N            4.15399384737815        6.31921561026402        2.25494641599077
C            5.09041719343153        7.35892017504994        1.91272122107867
H            5.13138896570050        8.08689204075060        2.72065722205319
H            4.79976616490645        7.85547113432243        0.98362413298339
H            6.07438730920127        6.91192690683086        1.76685654894184
C            3.12256369084881        6.45037647961575        3.24803508710933
H            3.53636597237654        6.80270818229177        4.20325482961275
N            2.02055730217644        7.29416535048615        2.83609363669129
C            0.84973483536393        6.60254118822780        2.73307947106580
O           -0.24211619433711        7.08412948987598        2.49903236952496
C            2.07021630370713        8.72960386020439        2.75983652781283
H            2.97790302199121        9.04160985834300        2.23844296790094
H            1.17920976261340        9.04254514813600        2.21081944271524
N            2.09809636320584        9.36807684158165        4.04853797804731
C            0.97992245992113        9.42169150122337        4.96504504304986
H            0.54963335291945        8.41935629436665        5.10013128107857
N           -0.03412684454764       10.37119655558464        4.59004693830960
C           -0.92963708916196       10.20259851153947        3.47460626035229
H           -1.91133486429608       10.58700020419434        3.75306158003818
H           -0.57778658204993       10.76096135329522        2.60321040033505
H           -1.00268485749854        9.14489788567319        3.22811501573450
C           -0.07479721676157       11.42371409283638        5.43915293620006
S           -1.10529626022712       12.70267475269738        5.31735934013984
N            0.83369470203942       11.24889228306001        6.42653663911147
C            0.98221500181245       12.14116562800690        7.54758782981080
H            1.45309273930751       11.60861742248849        8.37145558941487
H            1.58726332520995       13.01027743631329        7.27815447234213
H           -0.00485697231213       12.49306359773516        7.84905075854323
C            1.59509204966782       10.04299597151158        6.24281494714702
H            1.54509278179270        9.40496534686106        7.13627223645019
N            2.97420174397403       10.27437158095931        5.86782646518474
C            3.25915544587547        9.79347702195409        4.62366642806137
O            4.35963437941754        9.76600328846901        4.10692280098953
C            4.00149996039750       10.72777908375216        6.76669627806765
H            3.64020397159418       11.58389569805868        7.34102010754945
H            4.85573496504290       11.00882307667864        6.14653688923095
N            4.39947301926610        9.73104190189266        7.72458105372473
C            5.15242879532011        8.53715890185681        7.40594048161947
H            4.69549687815835        8.01525485290401        6.55334840846808
N            6.55164826244657        8.77734506498288        7.17311193262085
C            7.07812533850189        9.42902638184760        6.00147729073784
H            8.00306424920829        8.93088689415575        5.70912462374200
H            6.35084373684319        9.36173312492349        5.19454893874216
H            7.30437670720925       10.47819356812092        6.20704889414581
C            7.32035726623588        8.26593633610976        8.16213988599012
S            8.96366647080724        8.35591108530918        8.22844523568461
N            6.53772276921953        7.63506410437473        9.06798150821538
C            7.04692004459257        6.90609973706292       10.20117475899818
H            6.30321806720333        6.18077503176643       10.52573082320486
H            7.96171844668045        6.39124262850086        9.90619490921574
H            7.28634342675708        7.58270683333192       11.02518415248167
C            5.14278239751260        7.74380301628171        8.73548858887910
H            4.67308010265854        6.75176310402592        8.67778111872436
N            4.39382608092801        8.60232596777116        9.62850580107863
C            3.89908643857270        9.70311792422727        8.99309260052245
O            3.15269979554568       10.52982086709421        9.48116454936475
C            3.99275351199494        8.24604971768342       10.96309478555805
H            4.84187135562131        7.82433463226275       11.50555405354873
H            3.64554718538865        9.16587307158624       11.43889665418289
N            2.95062287183521        7.25530822444918       10.99835517586531
C            1.57488268843209        7.49403649703332       10.61969165001765
H            1.52915150850934        7.98804717156592        9.63897585397487
N            0.82230611941098        8.22825227819157       11.60198384314824
C            1.00705652716377        9.62889117859314       11.88298073115602
H            1.64215925368182        9.77143103450371       12.76093839968376
H            1.46082187475403       10.11237682145788       11.01968005034465
H            0.03374560314862       10.07514087972897       12.08922856846003
C           -0.10916784527676        7.45242502431974       12.20295939056935
S           -1.14236320088754        7.95121720657510       13.38461100442451
N           -0.08996956562775        6.21323015667789       11.65967421396908
C           -1.02639059310343        5.17354874530967       12.00197530526359
H           -1.06741851749641        4.44555472255999       11.19406194504959
H           -0.73569386703674        4.67702528841175       12.93107159741118
H           -2.01034246137143        5.62057176379358       12.14787974022940
C            0.94148019274645        6.08197159996425       10.66660667515000
H            0.52765491342961        5.72963305597781        9.71139564477515
N            2.04345284158108        5.23818119875285       11.07857589733199
C            3.21427718720982        5.92980862185522       11.18162827085509
O            4.30610850213637        5.44820359682109       11.41573407318581
C            1.99384323468147        3.80273994041636       11.15484278719861
H            1.08618298678327        3.49069821067432       11.67626306276014
H            2.88488419491679        3.48985416406919       11.70383324570113
