65

N            4.53623052717159       11.02776139417134       13.25639335256202
H            5.22976704859975       10.65151662739931       13.89714109191340
C            4.54487723030696       12.34938075003697       13.05730313792398
O            3.91012927970239       12.93154545624684       12.18231577479830
C            5.40023282092917       13.09132646990742       14.04487941215669
N            5.36662525890446       12.66983970999866       15.30028244708466
C            6.13319462050943       13.28367839045864       16.19358982531463
C            6.07517993599649       12.77235037040258       17.60352968817340
O            6.68547682933997       13.31160451772963       18.52228708279424
N            5.26877173117450       11.71604161833076       17.74178688046976
C            5.05006173198686       11.00590243129224       18.97739995049844
H            4.00435021589765       11.13995813208697       19.27946681265035
H            5.69676636365688       11.47041012334762       19.72656929239039
C            5.35808736832736        9.51519762160430       18.84792291667714
H            4.76186376094342        9.09741392776107       18.03424365359191
H            5.06269415189460        9.02314141457625       19.77682886462479
C            6.83617602512315        9.24691384930460       18.57694843725469
H            7.12675241025593        9.72501036503562       17.63887638867984
H            7.43984946540796        9.69378260062910       19.37090740938953
C            7.12910673725185        7.75056673648591       18.49367271367372
C            8.62670055751849        7.45587458881875       18.41093430464291
N            9.23919627207184        8.01970353703405       17.23376446169351
C           10.20400564425443        8.94424348141531       17.25986867257753
O           10.72559729073663        9.37879087728577       18.28309854425698
C           10.64333286061409        9.38129509505877       15.89345078486838
N           10.15802617605494        8.70638926516425       14.85899859050741
C           10.52921271690500        9.06851289484880       13.63956273546865
C            9.94685207617992        8.28407699099669       12.49870829745045
O           10.60592810448236        8.00231564522834       11.50152519223264
N            8.68085580347730        7.91118523060822       12.70853464925918
C            7.90420703491436        7.17178787436552       11.74029850641402
C            6.84567651236603        8.03195653779989       11.04514249133019
C            5.76636851634674        8.50547906048068       12.01519844093301
C            4.77482233551228        9.46006671354200       11.35440803871608
C            3.84176110566141       10.11316932178330       12.37866621144015
C            6.17916559120111       14.16890769806205       13.62860580177107
C            6.98080295019725       14.80538070483835       14.56115907551982
C            6.96431165486582       14.35251956609050       15.86976587348967
C           11.52571629822431       10.44921797537381       15.75257808421607
C           11.92268651224553       10.81690983786041       14.47802745478980
C           11.42278745653607       10.10962274235793       13.39753782113200
H            4.88678352376458       11.34063243767263       16.88225333062415
H            6.63084796946585        7.33623415736119       17.61522100805736
H            6.73451772469763        7.25052380719227       19.38072201369411
H            9.14845140332645        7.88897715281464       19.26868058154530
H            8.78821057328758        6.37188719413343       18.40428245793101
H            8.84627816106004        7.81503389152217       16.32377903461716
H            8.19801963250105        8.34176763598284       13.49079976833923
H            7.42158396845416        6.33402974732022       12.25254027406634
H            8.61528539410967        6.78685522379036       11.00460805042178
H            6.39541226351485        7.44796954376081       10.23958880871792
H            7.33858173006782        8.89864954734863       10.59910683261603
H            5.22933571429752        7.64187266766923       12.41389559322137
H            6.24398450449153        9.01792015171843       12.84969452020936
H            4.17204416508888        8.92486738890908       10.61773535663537
H            5.31989029223785       10.25072276240676       10.83358996363897
H            3.07705464912161       10.69975008160994       11.86280910693798
H            3.36397122791581        9.34455264315750       12.99161083481348
H            6.14977447123041       14.47429904682276       12.59423074006861
H            7.61117296377657       15.63424831818938       14.27234231341639
H            7.57063065305530       14.79584813330030       16.64453210841598
H           11.87142038412285       10.96089073995773       16.63737598098972
H           12.60381844460528       11.64276824110743       14.33047594136385
H           11.69506192468159       10.34679180072447       12.38073530996884
Cl           7.37898042587623       10.23768293457296       14.75299679422453
