318

O            4.56252923204416       14.52231156506272       23.75773764896729
O           -0.94607540847590       16.20537021394851       22.72026289847290
O            0.56292285791994       11.85516274310039       26.39730970303026
O            5.96183264558787       11.22438928382535       28.89269863753827
O            2.70337751392573        6.70320915891430       26.69937542513872
O           -2.74461545806032        7.23975350259516       24.31544769265218
O            2.01848902590008        4.93676009391071       21.45975269593402
O            7.66342535220603        5.10885982506605       23.47045718590133
O            5.56378395889120        8.08163680974344       18.54630844940182
O           -0.28496900023209        8.36970901240019       17.08821276791226
O            2.99797681079450       13.06007482351639       18.85119451776128
O            8.94348833161504       12.91249042923527       19.41579770629051
N            3.06692195614553       14.39629785862322       22.02181041013922
N            2.39420912054947       13.83694651547650       24.05754165141662
N            0.08650224259844       14.32435885356147       23.55795283335735
N            0.83708316800489       15.21944117325233       21.66626744385794
N            2.74716477425427       12.44948312811942       26.01230534843108
N            2.28771588099904       10.35749316844014       26.58614770130589
N            4.47532176565632       10.08794979440588       27.56477978233572
N            4.89195416040793       12.21997273169828       27.11706754780760
N            1.21819838771539        8.29058760611504       25.96048612357481
N            1.60566611043646        6.50969118746370       24.69489815851788
N           -0.58718399755480        6.76357896864494       23.67974289029645
N           -0.96141376419402        8.54557071175720       24.94166499300778
N            3.30406272161289        5.74150346466455       23.18077218267239
N            4.01817329242603        5.99606888432720       21.09393931549128
N            6.29702248610631        6.10693750535486       21.91482863108579
N            5.57778664140839        5.91531058829142       24.00182929992579
N            3.47587366741229        7.43154967553633       19.24160683936168
N            3.77587114813153        9.52760996797157       18.59358991464106
N            1.44424725264929        9.61723008226200       17.94779028970196
N            1.11987655616567        7.56024162666830       18.71674478990756
N            4.75453964189085       11.63469009743709       19.25069001797781
N            4.62758352859392       13.52315772684511       20.40096926625048
N            7.04224012656205       13.48837364165197       20.56601623265890
N            7.13645159205044       11.49830845648068       19.57085721856263
C            3.45296753597640       14.26261942614718       23.32044582200741
C            1.23264766089737       13.53242121406716       23.22951545777062
H            1.01558979809873       12.45907924440569       23.27252377018873
C           -0.09547990604258       15.33308131411814       22.65086604956360
C            1.67481377318573       14.05818583491115       21.83921524435208
H            1.56076399767006       13.34644022351148       21.01191745212629
C            2.46559628918400       13.76351649730867       25.49419690765471
H            1.50942289153370       14.07671794829019       25.91813157591058
H            3.26673998687760       14.44108175875143       25.79569862668680
C            1.74883844059839       11.57925849128994       26.33104223975115
C            3.72294732809719       10.33391253301975       26.37287072281116
H            3.98636448218665        9.61307702925404       25.58816056466970
C            5.18669744921008       11.18206847922682       27.95181565494343
C            4.04704151522824       11.81078207688529       26.02455697234120
H            4.54429016658219       11.95078545585688       25.05614490943136
C            1.47079629349989        9.24936844771495       27.00494176018063
H            0.52658483296795        9.68132067535979       27.34535414913897
H            1.96288337899059        8.70113357666814       27.81100660984003
C            1.92641997128871        7.13263737645069       25.86452752423217
C            0.72231148609156        7.31318383786444       23.87607101093169
H            1.20383482554839        7.53214265928473       22.91063450627189
C           -1.55048053209492        7.48153856543612       24.32748841756685
C            0.45788136596716        8.56285286829134       24.75648179425089
H            0.78963509467213        9.51260021250816       24.31701699750919
C            2.37980879641040        5.39018351398035       24.22632249570183
H            1.73060633605500        4.61134645944364       23.82161255824231
H            2.91296086543332        5.00577713713835       25.09760595066402
C            3.01308671040177        5.50790630066910       21.87397731540660
C            4.99860145399052        6.71713927778578       21.87784615222890
H            5.06615116710298        7.75900460284485       21.53169823141388
C            6.61129578996231        5.63810840755511       23.15839034538973
C            4.49119922228247        6.56343878234398       23.33469410116593
H            4.23725284605074        7.50990216517576       23.83200393342082
C            3.85849895319579        6.11196095747689       19.66434644805298
H            4.80069658534557        5.89071420869336       19.15955850775678
H            3.08697557934237        5.39037829263049       19.38655938613294
C            4.39491229038282        8.33005365308928       18.77813546278432
C            2.39359084459320        9.50289175970378       19.02014913165490
H            2.22667230233452       10.27653738100447       19.78074397426964
C            0.66711768289619        8.49830447714266       17.83592088243672
C            2.19805460919372        8.05129410543791       19.52094204560265
H            1.96305938758210        7.96835711343899       20.59318705050812
C            4.47554949630139       10.71497315022209       18.18046220679540
H            3.86135982582016       11.26259571295058       17.46159007837579
H            5.41364770106609       10.38619350728615       17.72789320797078
C            4.02153419048789       12.76286026023778       19.44437789596375
C            5.79548319597599       12.87249117191824       20.94853058735024
H            5.70800555385168       12.79225130072351       22.04049332575205
C            7.81838498828326       12.66073926663330       19.81234325875309
C            5.84633362974692       11.51696788823875       20.19975488702842
H            5.70685409735938       10.63116046340512       20.83274586987279
C            3.99361835024889       14.69111773945916       20.95710762849049
H            3.45235978378914       15.17262665061570       20.14145301750809
H            4.76189128401503       15.34538884538770       21.36984508240630
O           -5.39380775388050       16.93778068879022       24.20657300762920
O           -5.83783361296514       15.97550916193581       22.25300763582232
C           -0.97498287404934       13.89895630980825       24.45172477338280
H           -1.54582110360398       14.79652574917887       24.68273372702227
H           -0.52895594117724       13.50074116314216       25.36356457115348
C           -1.87163398466898       12.81138324348258       23.84716579846237
H           -1.23987599175478       11.94989241170543       23.61528251769739
H           -2.57203308422693       12.49530020415253       24.61968988994299
C           -2.64008767347903       13.22068428993970       22.58696730483076
H           -2.03603341454392       13.91423702271787       22.00031273977687
H           -2.79689906969382       12.32955355054089       21.97514677362102
C           -4.00852174791648       13.84709569436404       22.85029714013583
H           -4.61423035103719       13.15657808837988       23.43942195944992
H           -4.51091824133246       13.99023142969111       21.89074840991818
C           -3.94906227781700       15.20439982711703       23.54967523776266
H           -3.85489024016311       15.11276183581893       24.63056739459246
H           -3.08571991022318       15.77117892975038       23.18255363090605
C           -5.15344674753112       16.05157849065657       23.25160458180753
O           -1.57162983274978       14.24265208469970       14.65795702339532
O           -3.46340874837694       14.87081056305994       15.58009798141755
C            0.86598122047168       16.11838799913874       20.53050658548533
H            1.84988349489242       16.58888204073050       20.46683930687855
H            0.12642319279543       16.88870540968468       20.76487035302268
C            0.50907492367162       15.44225159359126       19.20653417890858
H            0.62766643796358       16.18147100101761       18.41507583663183
H            1.20442086780236       14.62701550701225       18.99618248304583
C           -0.92231725114522       14.91104967397954       19.22094423415485
H           -1.60147957638924       15.71619327495104       19.50967769671950
H           -1.00118989035031       14.12726067424931       19.97859087819467
C           -1.36361527320540       14.32138277592821       17.88317985472182
H           -0.67097779530767       13.53091017238650       17.59062578994940
H           -2.34929321845586       13.86800809788187       18.01247536431369
C           -1.42173443723050       15.37796020551798       16.76722286869219
H           -1.94577852980488       16.26289248952478       17.12835630746120
H           -0.41108815385197       15.65208052680476       16.46453511090694
C           -2.13476591070548       14.79370467387227       15.57660166764347
C            4.70672209718988        8.77827699307340       28.14038770325671
C            4.20997677644548        8.69143277318851       29.58355810840765
C            4.23595194456710        7.24941223451629       30.08130128011858
C            3.72380542197061        7.14419957473417       31.51481811617402
O           10.64620163087417       13.96925586114223       28.09987636480952
O           11.85182805704045       12.13059529163074       28.07252638100363
C            5.50238295411498       13.52185012706426       27.29602580731191
H            5.85999187225840       13.53111912044505       28.32894912725285
H            4.73895989725176       14.29366704386163       27.18831985898154
C            6.67484631439129       13.80798866607388       26.35950497683630
H            6.96946092080730       14.84512915299977       26.52611241700376
H            6.35132461709166       13.70859218235929       25.32115215610071
C            7.86524943059788       12.89842523430504       26.64681895056160
H            7.58443507415071       11.86316666494480       26.43478038604449
H            8.10269196805613       12.96443282818747       27.71047224203656
C            9.10086095990894       13.28874437877101       25.83921424417981
H            8.89551199826013       13.15987140502201       24.77459763815535
H            9.31385917070765       14.34389525459285       26.02092483927122
C           10.32659859845285       12.46666205503799       26.23884989602725
H           10.06304613047904       11.41097669661727       26.33235408053725
H           11.10336495700158       12.56817386805604       25.47681900113537
C           10.92740787504469       12.93413630090562       27.54493342401452
O            1.33123838695468        2.12567829239747       24.37925336042295
C           -0.91154423084845        5.55615483077059       22.94259185535299
H           -0.09067398734350        5.35283885933304       22.25539403367396
H           -1.82175632130370        5.77010154191409       22.37421885304007
C           -1.17588898200051        4.38014803172339       23.88655190992367
H           -1.82511539603679        4.74582420031335       24.68568318383080
H           -0.24423779573274        4.05333540007685       24.34886634130164
C           -1.87821905682908        3.19868500794944       23.21657682675561
H           -2.00391294561122        2.42786053267699       23.98005862225768
H           -2.87392670270430        3.52088977688277       22.90645114755220
C           -1.17131809189312        2.60292811623332       21.99509420343917
H           -1.21287667994312        3.31517169464399       21.17138461874756
H           -1.73269856563138        1.71741894738329       21.69471488073646
C            0.30988217097314        2.24463979646247       22.21403333975561
H            0.62907662651188        1.54214605954536       21.44162242860889
H            0.92869222573143        3.13610480998962       22.12176512742129
C            0.59257951686904        1.62454386666949       23.55882041545127
C           -1.72392184932717        9.56973379679838       25.62607919937826
C           -2.25796850170660        9.09071351575869       26.97742114813499
C           -2.87736806294027       10.24749984020748       27.75626467594298
C           -3.37503857812694        9.79795012567883       29.12736265195133
C           -4.01148044701685       10.94944046467680       29.90210274318454
O            4.95648932950511       -0.36829666244878       28.18941190804058
O            4.53465297281667        0.06136588034208       30.30354922935675
C            5.25189252424033        3.79491549414575       27.14422737223544
C            4.78829596176551        0.45729721147991       29.05607369937868
O            7.37225887993067        0.22612437552407       17.38725567821306
C            7.10324592383068        5.80093018226065       20.74912799730529
C            7.54470724051030        2.64676201494685       18.53190581790457
C            8.19401858553677        0.99986608645183       16.70210787814531
C            0.41862721837642        6.31176726128232       18.94583512586689
H           -0.64977800131522        6.53532606319061       19.02900057888938
H            0.77082607785391        5.90068735858684       19.89297748935302
C            0.63744003636389        5.30890296827453       17.81210421958556
C            0.04355342346646        3.94992304743256       18.17160702079041
C            0.25179507964306        2.93238122874354       17.05314461167760
O            3.68307870316388       15.32857703927127       14.93154578881793
O            1.71900777419762       15.94682607589331       15.69389271453574
C            1.02985991091731       10.88599989549426       17.38265517211162
H            1.42756456723102       11.67655766500424       18.02334636483228
H           -0.06397857887562       10.92213890501925       17.40394149856938
C            1.51145812279915       11.09343863334869       15.94525039615905
H            2.56239709697905       10.80814259898540       15.86940121758464
H            0.94089176972530       10.44568439687210       15.27908009084027
C            1.33954176132190       12.55908995973699       15.55420414115055
H            0.27659868742268       12.80006894259473       15.50342074477847
H            1.78545250540921       13.18183944194685       16.33562539317180
C            1.97805213557888       12.90263310029946       14.21161362005147
H            1.53190890927132       12.28684941279258       13.43096870223915
H            3.04677759934848       12.68358375200383       14.25067832413991
C            1.73182118093739       14.37976529832815       13.86822146919802
H            2.14986909500354       14.61163374141966       12.88808733326456
H            0.65663095481023       14.56237994048014       13.85164862077929
C            2.35215458442984       15.28395373966529       14.90352901096934
O            8.74041245326347        9.39102714030631       26.60823519199435
O            6.75338536455486        9.05068014680700       25.65010757750344
C            7.86933816897747       10.24405267522582       19.32895145771783
C            7.85465281756514        9.38147984940202       23.03647280221164
C            8.64667699381439        9.71787626008051       24.29390410856968
C            7.92467956039570        9.34808493539366       25.56172771937070
O            6.81515172640074       17.16737397549634       26.71619997710368
O            4.95807999134950       18.20671803726953       26.16778825847399
C            7.44124930514619       14.85009866713404       20.85416249718784
C            7.53482823260947       15.14764834172012       22.34955361690290
C            7.95360482456233       16.59891322587729       22.58661016863778
C            6.29815890465690       17.30533817513904       24.37276657869639
C            6.07528721180910       17.55272576130408       25.84034527850180
C            3.73742762671952        5.70266664130354       32.01104130795049
C            3.22446098759761        5.57276137679792       33.41928440353271
O           -4.33532889106970        9.40797229692332       31.72265560120800
C           -4.47187772512304       10.52201088460230       31.27387908069984
C            5.61982935250066        5.60494043151762       25.41577580046991
C            5.49713650234477        4.10043304639672       25.66972438474397
C            5.08321943169379        2.29396613011146       27.36590625629016
C            4.85809778498827        1.94906550584691       28.83580237849329
C            6.95781132556419        4.34231017821799       20.30929481602989
C            8.30792335066662        2.40288513092707       17.23357480095983
O            8.79686759259901        0.60128860366828       15.72515747321032
C            7.70180619468956        4.09138027149860       19.00028786699548
O            0.48741300438982        0.76435714353780       15.30265893524532
O           -0.75558583136160       -0.61587343938995       16.48134989341372
C           -0.38848142380692        1.58762997348290       17.38893780743085
C           -0.17093586707677        0.56859148785851       16.29716788704401
C            7.92467563931279        9.39796408109985       20.53560325335602
C            8.60926914332013        9.81814326860610       21.77463879313303
C            7.76607982194241       17.03412412872758       24.04015166782101
H            5.77951384910830        8.56879649864693       28.10699018083325
H            4.19917578522000        8.04333442484052       27.51643890497839
H            3.11496234507751        5.07357542285182       31.37195153696819
H            4.74944817516799        5.29509276091480       31.98756579362243
H            2.70569945275107        7.53305417553361       31.57416243923794
H            4.34093920042726        7.75872622514384       32.17228730494023
H            3.19156609706244        9.08161238785573       29.63899333489270
H            4.83882676094584        9.32614963336727       30.20965828926239
H            5.25790372172083        6.87176327556905       30.02836216112656
H            3.61936845015558        6.63884737957882       29.41785821047932
O            2.82675489613450        6.48471835584267       34.11033391002348
O            3.25221593142737        4.31715294399080       33.84455073392447
H            2.92137526194620        4.21960394784138       34.75865149509433
H           -2.56634254214964        9.83972469112949       24.98237291388768
H           -1.07705297499305       10.43937982976067       25.75363541485257
O           -5.06385738412341       11.46366918178956       32.00949763501156
H           -5.12962420830284       12.32912119897992       31.56584543334614
H           -3.28719917733896       11.75924456803495       30.01810649549351
H           -4.87097399340646       11.33644717774843       29.35049665847312
H            1.70625686368254        5.20665864122961       17.61592014628720
H           -1.02423514028211        4.07148195354193       18.36072949086509
H           -0.17865832689577        3.31226409936888       16.12519916890436
H            0.04319499385555        1.19603855106803       18.31293045519286
H           -1.46216493670388        1.71733173303761       17.53922724321267
H            1.31829245465126        2.78710967563816       16.87441551030534
H            0.51399360400178        3.59399044615958       19.09071202558689
H            0.17081175694511        5.70223516467526       16.90767352902358
H            9.37134142496389        2.61513172693184       17.36241191493927
H            7.94859309348217        3.07166512246802       16.44760057441674
H            7.35907022038294        3.70420409065596       21.09874981148120
H            5.90033100302334        4.09842588816460       20.19052203124572
H            6.48793107100777        2.42420079578851       18.37941758621939
H            7.91537571464564        1.97205833317299       19.30465086977986
H            7.31320640822548       -0.67737220336238       17.01984218067900
H            6.74581164581225       15.54125337234003       20.36739315579893
H            8.42255189158572       14.96220017952510       20.38548045280297
H            8.26606682877135       14.47805971189894       22.80462246822693
H            6.57357939487359       14.95184677191337       22.82390519109543
H            7.36907555622146       17.25529880940634       21.93938914627954
H            9.00210207447626       16.71111217430235       22.31048289701922
H            8.33935089120827       17.94375417549290       24.22527366870282
H            8.14694234283784       16.26488912904040       24.71255895575520
H            5.69700617711919       16.42261688373295       24.13035149724784
H            5.92969502995848       18.14719203674016       23.78534970083049
H            4.43838241919355       18.51201899485599       25.40247734440553
H           -1.44503010858896        8.64803282432601       27.55635737536620
H           -3.00038609150136        8.31072815625338       26.80089634590039
H           -3.70911320249785       10.65682489817969       27.18098186761306
H           -2.12863985286838       11.03446064519632       27.87285372135037
H           -4.10603918914949        8.99623445672881       29.01058456300292
H           -2.54577082860900        9.39204078900174       29.70948995775395
H            6.09309461812928        4.16519140821652       27.73194686956415
H            4.35373194535083        4.32414366700770       27.47058005834042
H            6.57254879624217        5.97051358701137       25.80939884380335
H            4.81165365933804        6.15091595089319       25.90443167845977
H            4.67406887843369        3.69770427797928       25.07495723088834
H            6.41443927568094        3.61693735626313       25.32969300950109
H            4.23805200099310        1.92955904095390       26.77808989133325
H            5.97114284672880        1.76848326679616       27.01006651366480
H            5.68039391170244        2.34411168564304       29.43705351867039
H            3.92872297110268        2.40264855863018       29.18608455786680
H            4.41398571715284        0.79276594718859       30.93638234595558
H           12.01288056031252       11.32048915670035       27.55500044708136
H           -3.82441308697641       15.34820875273258       16.34913045881443
H            4.10355451106973       14.78911933835772       14.23780308000416
H           -1.26827985818119       -0.68103077397057       17.30798202053162
H           -6.15185876678169       17.51892682805217       23.99997497954978
O           -0.00646929238417        0.46891841074562       23.82586062724374
H           -0.55140878096315        0.13577143293145       23.08940123602396
H            8.86358613333939       10.58549041369082       19.01633634723351
H            7.39225774433395        9.69895480919307       18.51415764514993
H            7.38720381519604        8.46849790024761       20.53554332461696
H            8.75894331732492       10.90213790391479       21.77160300847342
H            9.60704816284946        9.35899061818285       21.81270662301119
H            7.67105821585499        8.30486389332823       22.99953619725500
H            6.87805006994326        9.87139406231408       23.08035152954406
H            9.60750920093676        9.20176613847348       24.29421187756002
H            8.84313286032920       10.79185584015941       24.33213930533216
H            8.31417759951458        9.15986438903878       27.45390287940529
H            6.80969249879941        6.48031882387694       19.94666794005686
H            8.14543976396906        5.99510657403667       21.01688961835367
H            8.75940265698191        4.31667507846232       19.14411542896412
H            7.31894421607308        4.76992651236162       18.23489169621979
I            3.18367496544133       10.14570259543489       22.62413754493694
