189

Cl          39.25341606146901       19.63073569494525       10.35317968902038
S           34.14724036484525       15.64626490073811        8.65889595255569
S           32.86230357636909       20.78216974546725       11.89140810850771
N           35.76578720414896       15.38764856306513       10.77682564365355
N           34.72207583334107       17.34776362588633       10.63250896262222
N           34.27337572224742       21.77312997641386        9.84330687628068
N           34.20878399681522       19.55227589194510        9.93943232463262
C           34.91738304118258       16.14533172017291       10.04041370059505
C           35.25234037368200       17.27548793617400       11.98630351004598
H           34.44916365958329       16.86943594978262       12.62704009937752
C           36.35160484649813       16.23234514703040       11.81537051349521
H           37.25129141673322       16.71673417748667       11.40165909617029
C           36.68565393160104       15.65960300296882       13.17877120268764
H           37.43781887844579       14.87322742919699       13.11505576703424
H           35.79084385628075       15.23930814283151       13.64189559269574
C           37.22524418386450       16.83549883060710       14.00309783885697
H           37.44860143733901       16.49541625983420       15.01555420505370
H           38.15725585432695       17.17568356165662       13.54756265326156
C           36.25483516749113       18.01953938126217       14.06888215608716
H           35.36547890704576       17.73161302071000       14.63495076488745
H           36.73679596836693       18.84302560741204       14.59631194956645
C           35.81934832749278       18.49787706969000       12.67750669258832
H           36.67451959759546       18.89261550200260       12.12669766253478
H           35.06926333886147       19.28381334223543       12.77170351231844
C           33.67882264558871       18.26061344533802       10.26599003841641
H           33.15513198607638       17.83795579143349        9.39786436374544
H           32.98036506677071       18.38952701154818       11.10420718460265
C           33.82066469078276       20.70296239800967       10.53957012456993
C           34.70645732212621       19.88061501989970        8.61057506375110
H           33.83486689753323       19.89856161694616        7.93221380471696
C           35.21571748585239       21.30136958244834        8.83176256739483
H           36.22304578460312       21.26294116458824        9.27781251394225
C           35.32965400656522       21.99217896833951        7.48791689314513
H           35.64124976600925       23.03128155602190        7.59196578978773
H           34.37084655655983       21.97295982815079        6.96622736554674
C           36.39126766379101       21.19827332017516        6.71576688098009
H           37.34205662645070       21.29061267459036        7.24585037102259
H           36.51020841253789       21.62556273765740        5.71898432947617
C           36.04351195564607       19.71090706363922        6.59061907769592
H           35.14813822655154       19.59590564025522        5.97433967848936
H           36.86283466436308       19.19778870274273        6.08648623456534
C           35.78852453846694       19.05015552961510        7.95250506238735
H           35.46407220321021       18.01797472000564        7.81382232542355
H           36.69542631305858       19.05038621119021        8.55951191047715
C           36.34246816752913       14.15463730609896       10.31473140071789
H           35.70895878386060       13.79660775853542        9.49514392156708
H           36.34578830024807       13.42780937664537       11.13515934493576
S           43.83122817190868       14.31564560649757        8.71898503630467
S           38.73037344321986       12.98670472283093       11.96729306697536
N           44.06715986366090       16.00203817187332       10.78583888611227
N           42.11151473242253       14.94584529610649       10.66207700700465
N           37.69885203379467       14.26479439733290        9.85093962786329
N           39.91877077557773       14.34304858421370       10.00081871318693
C           43.32072570195698       15.12109388855113       10.07575795347825
C           42.16167555250574       15.53745798427884       11.99082317135135
H           42.54770686664408       14.76487127316410       12.67850405068512
C           43.21259780982836       16.62500726613958       11.79241830780757
H           42.73717916499501       17.51332012561117       11.34443838597446
C           43.76322908025018       17.01645486064196       13.14935534105997
H           44.55820694639918       17.75754998351493       13.06619319375068
H           44.16471922903220       16.14139404413513       13.66324721139239
C           42.57395053161611       17.60567444603891       13.91956905787571
H           42.89135829220182       17.86542814013029       14.93051669137879
H           42.26030140769636       18.52427352840707       13.41924952297329
C           41.37448996029834       16.65387866506800       13.99923686980198
H           41.63500650217163       15.79294740699330       14.61957253917106
H           40.54525274049720       17.17267630082688       14.48164046457918
C           40.92494815030219       16.14223711768249       12.62310053154733
H           40.54060929892830       16.95818619082891       12.00753908047220
H           40.13729604334857       15.39706594489831       12.74104948254253
C           41.22448771221214       13.86326093755213       10.34806762842320
H           41.66010084449542       13.31017236568335        9.50447723407983
H           41.11548266532409       13.20115689796232       11.21816070337240
C           38.77737220609752       13.90538728894107       10.58674571190980
C           39.59478390627699       14.77909598566266        8.65117515529757
H           39.65994615464788       13.89124032044872        7.99736483668289
C           38.13735053087577       15.19797210804906        8.81536707227756
H           38.09500028830663       16.22004957558811        9.22508138781900
C           37.48535925358539       15.20094125763981        7.44653776447948
H           36.42478670766873       15.44539974062208        7.50293934183253
H           37.58639974868480       14.22202051029448        6.97376681132795
C           38.22727422127839       16.27736162133822        6.64389293212924
H           38.03274110910417       17.24344801622888        7.11340816025566
H           37.83273457185631       16.30835326141667        5.62701090145918
C           39.74264603299694       16.05345547721490        6.59212696311848
H           39.95823529203769       15.14978744834624        6.01666038766280
H           40.20691655102030       16.89436784723435        6.07553984448999
C           40.36296651600293       15.90312056705237        7.98791531480951
H           41.42375916435162       15.66411604915556        7.90312427570773
H           40.24935224332145       16.82297782210344        8.56434878465970
C           45.30706867123016       16.55781529729874       10.31672396802854
H           45.65715948592873       15.90873061506716        9.50584622991975
H           46.03564211389509       16.56504509201861       11.13561413224307
S           35.64631750663548       25.38908068527234        8.73362608222308
S           40.75075257403937       26.73648111033548       11.96678897985866
N           35.42621186177780       23.67918084162078       10.78180240275648
N           37.36626435644750       24.76376720835620       10.67893080962434
N           41.76589849322178       25.47422055977992        9.83324108024779
N           39.54660111856859       25.39027048811747       10.00125570929709
C           36.16270082190788       24.57537091606514       10.08336864994962
C           37.30769038482621       24.17220276550393       12.00850755440277
H           36.89250165608745       24.93782225065177       12.68734599724526
C           36.28194932443411       23.06449673714513       11.79295394720197
H           36.78063625136176       22.19003220036605       11.34430319148565
C           35.72489289221036       22.64956840557440       13.13988107117656
H           34.95329900173554       21.88628366147386       13.04064750326488
H           35.28977732929083       23.50990742743726       13.65220867219048
C           36.91985843518840       22.09130687001418       13.92453651945106
H           36.59201202467923       21.80308492622610       14.92430604140340
H           37.28800625385033       21.19835284362949       13.41399963750427
C           38.07728589111444       23.08909750385615       14.03859911897233
H           37.76817164515306       23.94616157838658       14.64206495363480
H           38.90914330838847       22.60252708665325       14.54828723329852
C           38.54301838959715       23.59239952401356       12.66576481382214
H           38.93353244439326       22.76041554869139       12.07706472461956
H           39.32146845997599       24.34776311007219       12.78205626306611
C           38.24073637715355       25.85687506582356       10.36979973838060
H           37.79278001299986       26.41752385199816        9.53789985741466
H           38.35462471876819       26.50822792100486       11.24696776416062
C           40.69066605575420       25.82917937476746       10.58029379102209
C           39.86007136988736       24.97837011459075        8.63999763404995
H           39.79708779046206       25.88036626029238        8.00645639801653
C           41.31948120773234       24.55993925784150        8.78556800463958
H           41.36957383470642       23.53060143953892        9.17702631025556
C           41.96219995491281       24.57534754822895        7.41248548786137
H           43.02226694313025       24.32533113766015        7.45867348827493
H           41.86302078753182       25.56280793293199        6.95893884694154
C           41.21041920958078       23.51884406898442        6.59179529802580
H           41.40355938231304       22.53862876860886        7.03194572012829
H           41.59941368242347       23.51091564559821        5.57255378278956
C           39.69583846226669       23.75037948067088        6.55210882012856
H           39.48379501641998       24.66399158303948        5.99143256046789
H           39.22377842559030       22.91978826212802        6.02704754496048
C           39.07718695993132       23.87918490458547        7.95105238642070
H           38.02355087422249       24.14560710307179        7.86419572829614
H           39.14892967919997       22.93589751338861        8.49653938534903
C           34.18497591041876       23.12753106984296       10.31369634340298
H           33.84056298457339       23.77513259382440        9.49859883515508
H           33.45387334776537       23.12921066727317       11.13096539585383
S           45.27219952189063       24.02743419173510        8.62544009649422
S           46.56684936424555       18.93638560289289       11.90298446910750
N           43.69184297721506       24.34605013067519       10.76520985792037
N           44.67527701398064       22.35254880114035       10.61587650248017
N           45.20767082971627       17.90956241357941        9.83740198915502
N           45.18080410979306       20.13300794476571        9.95919147938107
C           44.51248306018970       23.56108354973768       10.02318365053671
C           44.16298030112610       22.44368512777045       11.97486396932722
H           44.98556376746953       22.81609173110650       12.60969964683346
C           43.10282578852627       23.52943891758849       11.82258529333761
H           42.17131855855671       23.08357289733946       11.43677567916712
C           42.81507444939089       24.11121265794359       13.19291100333985
H           42.09496167846947       24.92796112548100       13.14376813275534
H           43.73325296384625       24.49135342545956       13.64341602251810
C           42.23739906578834       22.95452666029962       14.01996945677613
H           42.05426643235844       23.29774326603199       15.03913354486676
H           41.27695913933840       22.66630947258409       13.58778016195607
C           43.15008701244292       21.72337801870269       14.06072342971628
H           44.05599194489977       21.96226247949741       14.62274862560800
H           42.63443007934363       20.91994543670858       14.58759256574645
C           43.55893737531938       21.23701610450459       12.66318497890873
H           42.69496973778516       20.86860555183976       12.10625167053988
H           44.28638730733991       20.42928074178988       12.74928558954516
C           45.71481416876279       21.42909050827351       10.26346854550352
H           46.23927941855983       21.83588701649106        9.38799868147686
H           46.41409631005590       21.31241509381150       11.10269122342026
C           45.61447872257924       18.99016162717308       10.54601770365345
C           44.68699419909478       19.80168302340305        8.63082666322738
H           45.54744394660025       19.84876186807698        7.94096065632025
C           44.25433037056170       18.35220939936412        8.82471384910127
H           43.24405843406704       18.33397329042046        9.26501145999280
C           44.19325289988294       17.68313595698820        7.46571612452424
H           43.93735051182674       16.62643428521626        7.54430951431446
H           45.15642325285200       17.76364172719270        6.95884578357239
C           43.10126361757041       18.43116930392042        6.68930654008375
H           42.14393338929481       18.24692669386585        7.18105435560289
H           43.04080308922679       18.03174673727280        5.67581222099945
C           43.33590656830140       19.94480677964157        6.62098322865502
H           44.21783439771968       20.14859148713541        6.00894973016145
H           42.47914554764745       20.41134719574615        6.13331094612496
C           43.54522267696242       20.57645544206342        8.00477719366108
H           43.79447674919702       21.63307773084488        7.89932452945495
H           42.64497028428320       20.48027004023166        8.61587310419421
C           43.12542845641045       25.58067088716001       10.29059193885127
H           43.75838778806304       25.92385806588473        9.46501920281800
H           43.13012578098424       26.31546453805194       11.10311156126432
O           38.79523949406870       20.59352145451183        9.39314785130338
O           40.68217760642406       19.50415797516031       10.26835693350637
O           38.64761335117110       18.35500572929385       10.08486605417277
O           38.88171225528171       20.06781525728723       11.66663777530149
