295

O            0.32027553026412        8.85296646393872       -1.15334267877579
O            1.14733006992534        3.21583465446428       -3.41164377850502
O            1.57405857807654        4.65927659633478        2.23183650126060
O            0.85466141201282        9.93820819852782        5.02265285881621
O            5.91874775363791        6.78662493521779        4.96761454849164
O            6.47602066189718        1.24256367241217        2.84207908886183
N            1.60714519272898        7.52487721081932       -2.52485136618746
N            0.93516249031930        6.72044920511911       -0.56878495665330
N            2.13676717399545        5.29142391919488       -3.34628149535581
N            1.20510885400197        4.48724294213728       -1.50392987240863
N            1.33983330665205        6.90141224928251        1.79798275204758
N            2.74773746703043        6.26340626132301        3.38345699882181
N            1.05138559819383        9.03074914794465        2.91690141701522
N            2.46839040719336        8.39336942580209        4.49306503684808
N            4.91965681701336        5.25982399473557        3.56992307295081
N            7.08736124922946        5.64428626481874        3.35617367957527
N            5.10135140051580        3.07556340760823        2.57991072275489
N            7.31022059627395        3.36566505467180        2.58303500802119
C            0.90174801423553        7.81012975427231       -1.38686528206430
C            1.45388030042400        4.24064435767227       -2.81726977185600
C            2.39364118817579        6.31017070499040       -2.37025714522222
H            3.46159348349584        6.56028611579313       -2.33461781160851
C            1.83276057504900        5.70460858593654       -1.05894627177294
H            2.59528796751903        5.47734413538953       -0.30005845418545
C            1.86116552386474        5.82272469674444        2.44766128057783
C            1.39661600488231        9.19651137785711        4.22417618947336
C            1.94183926292842        8.14618456324071        2.22427397232298
H            2.40619213750064        8.65332131517742        1.36638209953188
C            2.93347326154933        7.69912379723559        3.32839788164975
H            3.98676861432162        7.94019834207343        3.12679764834726
C            5.96716941283137        5.97927935164952        4.05719478707346
C            6.31451810920428        2.43662742077129        2.68645135804179
C            5.27423638630572        4.48703298804488        2.39319549730009
H            4.71752062779107        4.84572093010245        1.51857219728612
C            6.80866236965407        4.68431878538836        2.31497555093180
H            7.17979438178205        5.05921182091102        1.34903858539057
C            2.53332598397732        5.34587656747818       -4.73865829034972
H            2.82847814223589        6.37217012764545       -4.96784757315350
H            1.66727237330252        5.07625418705194       -5.34838949468539
C            3.69413697760052        4.45845770907367       -5.10708896910642
C            4.72381814883542        4.18227552800506       -4.21758194937862
H            4.67996264198945        4.55713145817687       -3.20394405413747
C            5.80038393396107        3.40936188767292       -4.61312552997907
H            6.61067731295565        3.20667786868424       -3.92827305112234
C            5.86532013233550        2.91391192909027       -5.90960859570643
C            7.02304280954488        2.08004435987423       -6.33948585482677
C            4.85225818386109        3.21328289226120       -6.81262094548015
H            4.91756609740610        2.83381759130333       -7.81974943158004
C            3.77132324472241        3.96915659597300       -6.40636698717863
H            2.97738584478215        4.18392137732048       -7.10309040686886
C            0.25142421008714        3.72561724386320       -0.72763684781244
H            0.62439979550070        3.64120709438877        0.29527354989559
H            0.21077133027955        2.73332670811097       -1.18493433614195
C           -1.12941522402836        4.33837119537972       -0.74594670587972
C           -1.91679232083938        4.32469158231628        0.40225439818702
H           -1.54795153645917        3.84764308881087        1.29787101861369
C           -3.15823829432562        4.93171772599288        0.41240811813615
H           -3.76277462465953        4.93990354099435        1.30669541559958
C           -3.64557061314299        5.53330949472177       -0.74494237838198
C           -4.95435584053639        6.23543819529096       -0.71231397848270
C           -2.87635218449889        5.52010888752886       -1.90632789182731
H           -3.23052070502888        6.00407624127855       -2.80381686988036
C           -1.62508011390189        4.93439496850883       -1.89862944611467
H           -1.03001416402501        4.93794500215421       -2.79903978427621
C           -0.07395401661929        9.70724972669728        2.31789977383012
H            0.13592851504906        9.85543243149242        1.25405511716128
H           -0.14019970645970       10.69671640540432        2.78447046157679
C           -1.38503798321775        8.98014383030603        2.49472002695642
C           -1.49354018827439        7.81878777924895        3.24965449173268
H           -0.62324009585155        7.40885171678975        3.73965856070373
C           -2.70773719969765        7.17132180222102        3.36836340899956
H           -2.79402151647713        6.25962372090548        3.93939317898139
C           -3.84684037200860        7.69050621337227        2.76052784172724
C           -5.12189721282573        6.94078580921971        2.90819357975211
C           -3.74498750564537        8.86003079971293        2.01027064183057
H           -4.60232475327108        9.24735713040435        1.48238841466524
C           -2.52258099230570        9.48760667991286        1.87327033984091
H           -2.43862307775839       10.38293222797603        1.27721360221801
C            3.13923248468265        8.38864089072041        5.77573753726003
H            2.94209312654712        9.36558822586657        6.22923256957117
H            4.21279400835790        8.27784577185957        5.60906001793132
C            2.63569538642886        7.31158442712663        6.70335898120244
C            1.27166623427051        7.08538134583835        6.84794445880075
H            0.57341952495877        7.69161049163564        6.29128829632142
C            0.80617771573102        6.11028351515745        7.70954294358643
H           -0.25730148776330        5.93808858441691        7.77547748718694
C            1.70859134555537        5.33966431423803        8.44154668767754
C            1.27386208315459        4.25991364659692        9.36447115641013
C            3.07675439998594        5.55865386173461        8.28986563712092
H            3.76335751668688        4.94806898270026        8.85569044661700
C            3.53549448577643        6.54156797877938        7.43485837751873
H            4.59563191559620        6.71063112709446        7.31946995067186
C            3.93683256506573        2.36422317125754        2.09353417463569
H            3.03825684532470        2.92450679791815        2.36156410716056
H            3.92386745265193        1.40115873533767        2.61275430384623
C            3.94401913468476        2.11057828568544        0.60405527309322
C            2.78080468339460        1.65058557139134       -0.00811875332916
H            1.90081306616316        1.49583940481860        0.59541766900313
C            2.74708322579793        1.37657949316322       -1.36245611219258
H            1.84308803272336        1.00159649444599       -1.81662070412388
C            3.89798444130040        1.53247428766624       -2.13151110353518
C            3.95786342605265        1.16447414650957       -3.56757747424182
C            5.06898747670873        1.96490889177390       -1.51593524469898
H            5.96819128678551        2.05187385592218       -2.10379921042562
C            5.08485579671938        2.27337011489458       -0.17092187695289
H            6.00666168137236        2.61517306298226        0.27503915392816
C            8.71064238040720        3.00824916262782        2.51731096321677
H            9.18788133182209        3.61459490209330        1.74208854276672
H            8.74540341826584        1.95136082088299        2.22904697914850
C            9.43361037010438        3.18005542211502        3.82773807311967
C           10.72611025421427        3.69397013145798        3.84754627233199
H           11.19047289803951        3.99984827622923        2.92211723814069
C           11.41464477453138        3.82184750014210        5.03947251561816
H           12.40487934819934        4.25103861253799        5.02625079744929
C           10.80631116759019        3.44993160956262        6.23717924489501
C           11.48492130558332        3.57860337376291        7.55184443982562
C            9.50030060281798        2.96224744249334        6.21978001940206
H            9.03815983963436        2.68956954526491        7.15591440511882
C            8.82600095401655        2.81654369875018        5.02441124110583
H            7.82574153315394        2.41165829493507        5.01197545044254
C            1.86495820880948        8.56384683819068       -3.49187944906320
H            1.06366342406154        9.29666812964206       -3.37255704748784
H            1.84793251914992        8.15051732204668       -4.50186526744519
C            0.36520314060376        6.75132575841375        0.75306902077952
H           -0.33583505215553        7.58677995974954        0.76272115297087
H           -0.16425871053619        5.81884717193817        0.95387405671262
C            3.59567417809255        5.36208939926138        4.12002182056040
H            3.70258732950644        5.71656988651090        5.14766411370845
H            3.11153689900150        4.38349656892265        4.10185671038512
O            9.85187329325609        5.89496713883016        1.15782057260682
O            9.13247140574683       11.53803663943665        3.26379020911147
O            8.71118561342545       10.05571721155362       -2.38855070396013
O            9.07180984144473        4.56990210563289       -4.95892904898047
O            4.23030061325794        8.06638229946009       -4.99430248049098
O            3.80358748737537       13.59683025463819       -2.85700955740442
N            8.57788946472551        7.30025432986285        2.45894894197006
N            9.20111620700301        7.97866799582199        0.44361166801943
N            7.99208006281852        9.53609256389167        3.19286108349134
N            9.07675849528512       10.22214062161305        1.38381892026622
N            8.88935888538599        7.80956053199974       -1.93303083508998
N            7.44559050230716        8.47647777523692       -3.47435912715355
N            8.96065329103074        5.58507586118749       -2.89875628048961
N            7.61976162788494        6.29594221857622       -4.51453816361621
N            5.30779611620955        9.55898067340102       -3.62062871950828
N            3.14388706403075        9.20126418941663       -3.32231749324772
N            5.16965679431433       11.75406334820203       -2.64974328021215
N            2.96491798232716       11.48122953429801       -2.54093439961655
C            9.26965041959463        6.94910060419579        1.33235317511464
C            8.77461823738348       10.53463447340348        2.67673884977441
C            7.77066258579779        8.49331370172549        2.23708740241233
H            6.71376836785299        8.21239219525881        2.18150914070517
C            8.37186651476761        9.05211710270485        0.92664603678160
H            7.63240473881265        9.32859370954480        0.15974172849982
C            8.37830034052230        8.90005969787024       -2.57540107055844
C            8.60220314832464        5.40288359354304       -4.20643157596865
C            8.17003310110561        6.59450674511116       -2.25813587482229
H            7.67990907688916        6.19694970910953       -1.35706878615905
C            7.19615388904659        7.05572261697402       -3.37297183059333
H            6.13230843305790        6.87593677699421       -3.15995716600116
C            4.22941961619099        8.86279603911824       -4.07309001608646
C            3.96153234164806       12.40231963627776       -2.69703208524984
C            5.00401982230122       10.34587938917225       -2.43880453019606
H            5.59376820327851        9.99572539099988       -1.58199114975079
C            3.47121109809915       10.16033819485882       -2.29301161473423
H            3.13953626681893        9.78822426243299       -1.31213469510429
C            7.26770355500586        9.69778333324294        4.43329296214158
H            7.08590196487386        8.71064779685538        4.86991083147365
H            7.91770666265528       10.26915404085397        5.10067304193245
C            5.94235949549156       10.40894882204464        4.31318617400896
C            5.22774714934173       10.47727944189654        3.12487121678404
H            5.63747939392602       10.07528324678534        2.21051948925121
C            3.99551052032053       11.09665455461163        3.08427165944838
H            3.43339334266861       11.14605322250632        2.16219542449584
C            3.45657311128409       11.69738574195439        4.21889888909202
C            2.15433608926468       12.39005076228163        4.05739473855105
C            4.17272545568317       11.63170190553542        5.41254402674180
H            3.79423979827458       12.06982374424588        6.32265990593686
C            5.39078067615894       10.98451145812134        5.45369141819454
H            5.93755160199345       10.93717276720261        6.38164527190119
C           10.07524919577641       10.93371454742119        0.62415273183114
H            9.71782438782835       11.04969365006541       -0.40319610411549
H           10.15228595129065       11.92083563851847        1.08959569549749
C           11.44034769406467       10.28435223598168        0.64896259740712
C           12.39354029609754       10.67973070340447       -0.28647201756387
H           12.13140620009539       11.41911467540834       -1.02718202227541
C           13.66613084736541       10.14423381383279       -0.26684026539004
H           14.41058756732430       10.45492754295708       -0.98186343155191
C           13.99457844536925        9.17455866372159        0.67634066417013
C           15.35366166529550        8.58766364545085        0.73280392811120
C           13.03856624381313        8.75866871168462        1.59786339344317
H           13.30509391060326        8.00582465721477        2.32371673826272
C           11.77931920132965        9.32588597571425        1.59627716413113
H           11.05908520566551        9.02404271010947        2.34202563834132
C            9.91293116103859        4.72289411918287       -2.22077234601720
H            9.62040851912926        4.64208387270395       -1.17140312871308
H            9.84223475930676        3.74031659038842       -2.70013438340196
C           11.33329536059061        5.22228903281295       -2.33194927484968
C           11.88197388213984        5.46802960668921       -3.58578042005853
H           11.29419192399082        5.26376418330319       -4.46724670809163
C           13.17108764979678        5.94930070542772       -3.70573283347009
H           13.56527142180636        6.15997915920560       -4.68806915482492
C           13.92751029145761        6.20608421595333       -2.56328355705806
C           15.29160880701788        6.78505280274314       -2.64718211800876
C           13.38427055341983        5.95572857080441       -1.30601636496759
H           13.97977858636308        6.15560640198011       -0.42774199968052
C           12.10236152230368        5.45022214393201       -1.19452001929376
H           11.69155933659020        5.24335930429202       -0.21754796607928
C            6.96340748139491        6.32613334234303       -5.80318443453273
H            7.11941244335932        5.34019866126617       -6.25677807834296
H            5.89248561878577        6.48234251846299       -5.65110105219120
C            7.52059398822071        7.37375505395134       -6.73152726830770
C            8.88831178219967        7.61117459784657       -6.79545557223311
H            9.55200669536461        7.04987736434604       -6.15632424288308
C            9.40154386010042        8.54231614881183       -7.67791877811383
H           10.46499744337095        8.72610888276793       -7.68442336749931
C            8.54321569202919        9.26010157492208       -8.50945984096501
C            9.03382313218306       10.28161737135802       -9.46932155089853
C            7.16906839373891        9.04141157406798       -8.42809429834573
H            6.51614288713801        9.61636457896287       -9.06612570850162
C            6.66371539082655        8.10048931360546       -7.55283013530321
H            5.59981542245136        7.92866399787685       -7.49193141509781
C            6.39265553092725       12.46845657540330       -2.35226025807381
H            7.24493178123021       11.85951787689793       -2.66050372747024
H            6.37055148107645       13.38382756242267       -2.95205522162100
C            6.56418840518014       12.85192650259581       -0.90152580760475
C            7.81473639810636       13.29205597690777       -0.47465098535070
H            8.62747060504478       13.32255460959658       -1.18300355211677
C            8.02398036414525       13.68779209392557        0.83196042572026
H            9.01219440096005       13.99767332442711        1.13484208717898
C            6.97582585874914       13.64687104571059        1.74945145880841
C            7.12069188587945       14.00560457686857        3.18332279141238
C            5.72382254267455       13.21539283971273        1.32076667611838
H            4.91155771518335       13.20697110175764        2.03080837444854
C            5.52101939584110       12.81855964138797        0.01393093843109
H            4.53567044768138       12.49400207998328       -0.28761676029906
C            1.57423942179621       11.85674321806999       -2.39050375625499
H            1.12752871475528       11.23829445829034       -1.60658688411581
H            1.56899898809872       12.90484957839477       -2.06966607778942
C            0.78635327770097       11.73309161692531       -3.66971198510081
C           -0.48948668547597       11.17608961742806       -3.65515264463028
H           -0.90303565998430       10.81690128623187       -2.72429824798909
C           -1.21644261172686       11.07444667151462       -4.82454887577239
C           -0.67462025402712       11.52692331831478       -6.02636198356053
C            0.60192413197702       12.08640453064086       -6.04331387313253
C            1.32227300998148       12.18827463568840       -4.86979511616383
H            2.30426535941403       12.63597186981988       -4.87363721936525
C            8.33584634191341        6.34528998902215        3.50862057563984
H            9.16651383058322        5.63562679555744        3.48602472668882
H            8.29734257366097        6.85568420575122        4.47295492938114
C            9.82773685710686        7.94549364738533       -0.85359863539459
H           10.51879574674659        7.10122633500872       -0.84785034786129
H           10.37426814022004        8.87367312461206       -1.03170119387033
C            6.61125551306842        9.39344277209136       -4.20710856998896
H            6.45460586270766        9.01659306295825       -5.22074268021230
H            7.13545050245591       10.35017438484499       -4.23305631376763
O           16.29131444634408        9.39273265105690        0.26999966928499
H           -2.20743241521362       10.64746811075774       -4.83106319946735
H            1.01717914879558       12.44063138165199       -6.97289226000969
C           -1.47773655058530       11.40447006392930       -7.26099651444669
O           -0.89911703179404       11.92393277917827       -8.33413466235751
O           -2.57396226430240       10.87672964178371       -7.30721501855516
H           -1.45422232943018       11.83033715505189       -9.13264552750262
O           15.59258544361011        7.49282803050850        1.20824831812972
H           17.17351323164197        8.97675712040293        0.28528946091437
O            6.33655097408231       13.61418466785464        4.02367723277475
O            8.12526973563165       14.79743321966569        3.53781677352847
H            8.67681094826500       15.10156131902729        2.79460186984406
O            1.50547719245101       12.29884148654179        3.03238184297803
O            1.70689955872181       13.15389643264435        5.04332075763718
H            2.30306052513428       13.21072223944422        5.81155363383249
O           -5.29785364866918        6.93865485235469        0.21303904344544
O           -5.14197130042892        5.73778760769410        3.08000324394810
O            8.35405520128757       11.22065596041619       -9.82664277699361
O           15.72023598409847        7.56538408208109       -1.82433316146448
O            4.97781054165794        0.69473724924404       -4.04731774512616
O            7.68758168588653        2.34319742095285       -7.31768182353957
O           10.87277238624572        3.72349388144122        8.58938561720893
O            1.98086367067833        3.31137065193081        9.63402788875298
O           16.05035517102791        6.42628315511071       -3.67992381935531
H           15.64578477125624        5.74748312096749       -4.25042450433062
O            0.06324735633165        4.35868233719349        9.90917747742017
H           -0.40143940420091        5.18707772566567        9.69211838559105
O           12.81487992517542        3.52422266375951        7.57051118241921
H           13.21581222187036        3.33083048451790        6.70359200557193
O           -6.25525470707914        7.62795183949631        2.90178282029797
H           -6.13083389527698        8.58283160493151        2.75652317995656
O           -5.74937256054892        6.09084474817012       -1.76956038551715
H           -5.41590038502548        5.45956230228647       -2.43324381118519
O           10.26800966496528       10.13714354324225       -9.94813144737157
H           10.70273157374529        9.31011375973997       -9.67154036004559
O            2.89444364375317        1.33467259119516       -4.32621055652777
H            2.16081184111592        1.87332462374716       -3.93371971934397
O            7.29474001133909        1.01780803176887       -5.59122643784842
H            6.57783252120108        0.80159607047777       -4.95240277811376
I            5.04680486575689        7.41964991476897       -0.02107116081463
