197

O           12.39554492692282       22.50580881439867        6.26222389460983
O            7.82057231821191       23.90491255639268        7.07043308446590
O            6.28223991507083       23.25629141354787       11.46576359898546
O            6.48938283637471       20.88964854482925       15.58360576294371
O            8.01460937995783       17.43335061655412       18.38657877227917
O           12.56724098367865       15.97540332770166       17.53695416525450
O           14.75966283731144       18.25229729844323       14.05538863721691
O           14.64365412636652       20.63332736145901        9.94329648920177
O           10.84719771313494       17.72730267884284        6.23000065906719
O           12.32957879522664       16.70665815648352        7.68507697897439
O           12.40088628472760       14.34771803214187       11.79267913067186
O           10.95799178314647       13.57718826657953       13.43934930227060
O            6.52423372182622       14.97315061415107       14.28871458390135
O            5.27953189953304       16.57367672346724       13.15444967709847
O            5.20229920846387       18.91021169116380        9.03413076388873
O            6.40694562874393       19.09957069080503        7.06732264645579
C           11.17373902134623       22.97993650379880        5.87839703005115
C           10.03571322029465       22.95555563403206        6.68367339175308
H           10.04737031938240       22.44094720210693        7.63429718829194
C            8.90958564846437       23.66981552204665        6.27913397166333
C            8.88659508840992       24.32830437692407        5.05207904280868
C           10.01039329745486       24.30464354386731        4.23523683361715
C           10.05391731131754       25.00521528970228        2.92040007759374
C           11.15802284087724       23.64793472750749        4.65781350995997
C            7.37204510199456       23.02181169111236        8.02144827586779
C            7.05871892470130       23.54019700811338        9.26891757359294
C            6.50204201219812       22.70700118446852       10.23242279849259
C            6.25237408563605       21.37370049960900        9.94000932569831
H            5.84396624624231       20.70768942806695       10.68178728151755
C            6.56066734518869       20.87261868011061        8.68726060828278
C            7.12859833850158       21.68662434656929        7.72160120007456
H            7.35952247789244       21.29268110869576        6.74482672415449
C            5.64268587607790       22.49212927618517       12.41770627062396
C            6.36422343724400       22.08748913296340       13.53330786384376
H            7.40701355751080       22.34315204578943       13.62679250631381
C            5.74742317682524       21.30433868094732       14.49882380847598
C            4.40455842926285       20.96440633615500       14.38558743557742
C            3.68461144380484       21.39492920834934       13.27539277511231
C            2.25457098728737       21.02111841381923       13.07192134833382
C            4.30662901417227       22.14237043765196       12.28064655516017
C            6.69786384161755       19.54680186252346       15.74725793954648
C            7.26216686402590       19.14177211046776       16.95117385308559
C            7.55428467292731       17.79990625753352       17.14641660864794
C            7.27399121515825       16.85756725310431       16.16372571130003
H            7.48240359328366       15.81262208430839       16.32916649411234
C            6.70116976860021       17.27448351520218       14.97399643191565
C            6.42411994043673       18.61385637712483       14.75659197047044
C            9.10421727254452       16.63139796404380       18.57999660805946
C           10.22154324428188       16.60949217070706       17.74807868965264
H           10.22579139169041       17.16379096129116       16.81994070499620
C           11.35311718307005       15.90530412033272       18.15787530404099
C           11.34067567037671       15.18223521121651       19.34662850955647
C           10.21388024136134       15.19193961465235       20.15691940739308
C           10.25016423129611       14.39144359858338       21.41363203031002
C            9.09523304731870       15.92373312785332       19.77953398698870
C           12.71554512984663       16.15227589994003       16.18418728179494
C           13.63448020205451       17.10444568040938       15.76787762127505
C           13.89154086029203       17.25546731420832       14.41025033791529
C           13.23931153609133       16.45290599495123       13.48439638669508
H           13.40058139616855       16.57924817787281       12.42594347047661
C           12.34003439118779       15.49187636286924       13.91566181717675
C           12.06481721007364       15.33831355400970       15.26396013641051
H           11.36915804329563       14.58407243321533       15.59534493013581
C           15.14040591318466       18.34059290256432       12.73290414558129
C           14.73296840062409       19.44435875829954       11.99674195372483
H           14.11883827220333       20.20442304044288       12.45140191923442
C           15.07390736184744       19.53481928407767       10.65323030104958
C           15.84082718618040       18.54332926159723       10.05629534149230
C           16.28247027062401       17.46378893709281       10.81360010836255
C           17.07713281411182       16.40732486933251       10.12219724580555
C           15.92802307353884       17.35247618897364       12.15474007898129
C           13.77952829191396       20.43637358199201        8.90072144477053
C           13.49305441960955       21.53987475879331        8.10595956562350
C           12.56448364641470       21.41855564980862        7.08224605432517
C           11.92585785373205       20.20789119848251        6.83832168319293
H           11.21892213259533       20.11421709618803        6.02942989963231
C           12.23137232789700       19.11440857579350        7.63117297513316
C           13.14754885864406       19.22449423671725        8.66229310192159
H           13.33643494911559       18.36641804261925        9.28553337860061
C           11.47804469236895       17.81126776990155        7.48757806309487
H           10.70626307934044       17.81241639514742        8.28144823532554
C           11.78715024772061       15.66589198529023        8.43363336903279
C           12.28408542690316       15.48819196259694        9.71550018062760
H           13.05414580008278       16.15235948946238       10.07774007594608
C           11.82311441336692       14.46586495330070       10.53018553028014
C           10.82964963125342       13.60007409120716       10.06514789243101
C           10.32966402726155       13.81529471798764        8.78905084770776
H            9.55667411192502       13.16299375135804        8.42308726685197
C           10.79401579626509       14.81225006018259        7.94469107692639
C           11.56969549058144       14.71581684816914       12.87248210657743
H           10.78597052047523       15.40017798317989       12.49905076236705
C            9.61747280062431       13.50038909943106       13.07912541373427
C            8.69007441116499       14.07982259650737       13.92278730739088
H            9.00587085702809       14.51556598422779       14.85732924900522
C            7.37860746929531       14.20385559081997       13.50720079174753
C            6.96502048583659       13.71147103620409       12.27045996558806
C            7.90962354299155       13.10003404951535       11.45781235814889
H            7.61332715753032       12.74702813059180       10.48479287239094
C            9.24143107864871       12.99632839619688       11.83510896374170
C            6.48875878708846       16.30770787158836       13.83193292853136
C            5.34675165700625       16.48214635818800       11.76454931007589
C            5.26785688222016       17.66638724353906       11.04854441523843
H            5.16460768075232       18.60243237597723       11.57625639049311
C            5.30712798349539       17.67210496375638        9.66303025932882
C            5.43625967359720       16.46966399467770        8.96174398825035
C            5.53632665278422       15.30072532808326        9.70162280613785
H            5.65406030954063       14.37155733952410        9.17243134850102
C            5.47585965882453       15.26665102598528       11.08755830965701
C            6.38924830180113       19.38956136858613        8.44728575166333
H            7.25281939595575       18.89576823209510        8.93333609326671
C            7.27125539548035       18.04646071352350        6.79141184218661
C            8.57535476123302       18.36045151727672        6.46165194716925
H            8.87743664392578       19.39142321606094        6.36461728606623
C            9.51523449913586       17.35260024787650        6.36781914675898
C            9.16121554836239       16.01970639421669        6.56472636723562
C            7.83766029772249       15.73106435910270        6.86369658576328
H            7.55561939826614       14.70892033677036        7.04851975968241
C            6.87984796455461       16.72527055828231        6.99553311463836
C           10.25758888801260       14.97599773616385        6.53603952170061
H           11.07720168707384       15.38765586333143        5.93251304328628
C           10.33725219268320       12.46197700802670       10.93820056516905
H           11.17284932757269       12.18471818628669       11.59373484082428
C            5.53034420868608       13.96503907871787       11.86234354122813
H            4.96943995494985       14.12626363593593       12.79248347259937
C            5.45909377587753       16.46247345691206        7.44499982684597
H            4.85968532357096       17.32262176270464        7.11865334229752
C            9.79614552107473       13.66403187788854        5.89517278597571
H           10.59174303871558       12.92278574767221        5.97471541298016
H            8.92216789296421       13.26821123267142        6.40995501823690
C            9.41514544896773       13.87057804304295        4.42473988318992
H           10.27524732386687       13.79392184912981        3.76241206401218
H            8.97079890956853       14.86300249704076        4.30819279351654
C            8.36564431983715       12.87887832326045        3.98955246723860
O            7.37009697185342       12.61094875601307        4.62624068250484
O            8.63583676215321       12.33327792446079        2.81762880028398
C            4.86281064836496       15.19640654067613        6.82300172295221
H            5.45801159001458       14.31985222415323        7.06814456840836
H            3.85921360247866       15.04633843104725        7.22072810847294
C            4.80591036400104       15.32073624739103        5.30323618124919
H            5.78972897137956       15.57472149391699        4.90273376995275
H            4.12482091679924       16.11973121285736        5.00089062169458
C            4.35582197619353       14.06119611289146        4.60869297934453
O            4.37542065539595       13.91984987101838        3.40255171911629
O            3.91332554481312       13.12608788720578        5.42417118497047
C            9.91609776442294       11.21350557334487       10.15901222118894
H            9.11608324332775       11.44205980591534        9.45704864781953
H            9.54026028285930       10.47590395313313       10.86899314711485
C           11.10650783070282       10.62570804115195        9.38679692378928
H           11.81107969226615       10.16187340155157       10.07477164976086
H           11.59912470313980       11.42113311633011        8.82696468762855
C           10.60112791231247        9.59333563929099        8.41375138168572
O           10.13753569643725        9.84886135663520        7.32324519714811
O           10.68197167941662        8.36270037057528        8.88617140656106
C            4.88947654846605       12.77181844049718       11.14553806667194
H            4.97272996566708       11.90951362072180       11.80899614925919
H            5.40927433288719       12.54289172475515       10.21891539344371
C            3.41500878639469       13.02689348822314       10.84401467648567
H            3.27685257341532       13.95594656285905       10.28981464762335
H            3.01227402431859       12.21384032802015       10.23605582712884
C            2.56878804732071       13.09766978162844       12.08695010564309
O            2.88156691243507       12.67975068235850       13.18063436457255
O            1.39059209490438       13.65757367300024       11.85123376136613
H            0.82272015510934       13.69120082913021       12.64506900030095
H           10.32335707880951        7.69122791121820        8.27261425871461
H            3.61661742706127       12.32402486694481        4.95180034053590
H            7.95368728080707       11.69847858060537        2.52243638499051
O           10.84006537058460       18.35524430303673       10.81024321837730
O            9.18279226925915       16.65916284991431       12.24641292688693
Re           9.25071900553485       17.79735293159651       10.98754202699179
O            8.21971005908378       19.09370353239620       11.34335252340622
O            8.75093808931578       17.07383213984073        9.54064571497914
H           14.13945762630265       17.72684198145036       16.48720061056156
H           13.98365673503013       22.48138839221997        8.28720380678548
H            7.25043607819939       24.57588888196148        9.49361832972523
O           16.94303260902876       16.17146390665750        8.94214431228460
H           16.08872073909710       18.59272416834547        9.00709602522622
H           16.19253063307534       16.48789222625208       12.74472518601404
H           12.21910557882689       14.63545976628360       19.64731489884751
H            8.19119164097122       15.95417593345276       20.36573931717491
H            3.96811503407227       20.32029520905013       15.13416967898396
H            3.74567059136639       22.43257294938431       11.40562634225383
H            8.00200172389892       24.89682445850015        4.81471068615937
H           12.04672126878530       23.66761072307840        4.04878689013821
O           10.94820503197561       13.40913914400838       21.53665562053606
O            1.77228463770048       20.90234987085361       11.96780351303887
O           11.09154513411919       25.37108434329878        2.41369123754104
O           17.95090225147326       15.72291057303111       10.84817141437191
H           18.04720742961032       16.04011625923551       11.76523902116054
O            9.48440542652188       14.79539525572853       22.42005916523023
H            9.01790278164664       15.63457282396382       22.25049854873685
O            1.51138841664575       20.82270028529699       14.15252423932830
H            1.96317276490503       21.02026202190652       14.99345524620650
O            8.89960675110687       25.21914181069335        2.29960474817943
H            8.12792776599308       24.83558561569821        2.75443278833781
H            7.32857477161693       16.47296886642691       13.13254198865189
H            7.47696799229661       19.86545045243714       17.71929099720934
H            6.02251178803358       18.91642536441563       13.80277949156924
