249

N            5.47836350063451       10.74323599649505       35.32016957365288
N            5.14757448531039        9.74021144901666       37.26306895124367
N            5.81295982035101       12.85203546620822       36.46302583232973
N            5.47376735211065       11.84628799377994       38.40974942436878
C            4.88351734554390        9.67978747293663       35.92835738199043
C            6.28893888077047       11.51594623585005       36.23667589187350
H            7.33357337783476       11.52509186665407       35.89598561707893
C            6.05428728377836       10.81411558668882       37.59795902955200
H            6.96011402836731       10.40787911019993       38.07024129676123
C            5.39401036827147       13.03625892086264       37.74806306284613
C            5.45964861282898       10.93617923291136       33.89477475935776
H            5.40054558806123       12.00399807933582       33.67559703936483
H            4.57696976894537       10.41943719437175       33.51261169172611
C            6.01539649575453       13.95787444330514       35.54528348710942
H            6.89554164103336       13.74103218494932       34.93518208724441
H            6.20657993619509       14.84473127558418       36.16081174537403
C            4.82097788765360       14.21841251892208       34.65942470829908
C            4.97601671477851       14.33266559661720       33.28288721827035
H            5.96021454063440       14.22543501844179       32.84970277904416
C            3.87996855195971       14.57448174657923       32.47164090646542
H            4.01305476341406       14.65784115872842       31.40324779395075
C            2.61932277420209       14.70290678911504       33.02874814993324
H            1.76413576217830       14.88931566638647       32.39647555643580
C            2.45881045029075       14.59696415256733       34.40054194567821
H            1.47888705919089       14.70458496436431       34.84181459044646
C            3.55396283856487       14.35929596075830       35.21194332832911
H            3.43679798920362       14.29423912282619       36.28311681704118
C            5.23748529113298       11.73000247553682       39.83451507360630
H            5.41882003468552       12.72303487285309       40.26251294629293
H            5.95679345987160       11.01918936265344       40.24869586979218
C            3.83275524442598       11.29473504883912       40.17628979783276
C            2.73971462247238       11.84405749566062       39.51789523585362
H            2.90311281280390       12.59106806301113       38.75588017609385
C            1.45448878687782       11.44600717783753       39.84176170676297
H            0.61291837704957       11.87949802518376       39.32177467075091
C            1.24789362763230       10.50042671893674       40.83284036798116
H            0.24460786211566       10.19146843455025       41.08618432084574
C            2.33210320073306        9.95415313067164       41.49919373494492
H            2.17829749328732        9.21626917792770       42.27283312473541
C            3.61887330972184       10.34786775219825       41.17202522310349
H            4.46750552170780        9.91042418617247       41.67777083551510
O            4.21198051526314        8.82284079911734       35.38038986133578
O            5.02504730304805       14.09277094177593       38.23188404826718
N            8.65736252484978       10.43374670022723       32.34231010959090
N            6.63201375223292       10.43033241987109       33.23110955455050
N            8.08393543034014        8.47463524812734       31.03994776575393
N            6.05998924262266        8.45793417660634       31.94793339110078
C            7.70181903594779       11.21193512388749       32.92042715503728
C            8.29888532814211        9.03220678723837       32.34539229951345
H            9.05318113604156        8.45527744838990       32.89867320204213
C            6.88387888344652        9.02797754263952       32.97610816825789
H            6.79579779413350        8.45716620730503       33.91107812598230
C            6.78811532400286        8.09012715479820       30.85461824953114
C            9.93858391489548       10.94380343767306       31.93187526272062
H           10.24896302608335       10.44480363571220       31.01152557858637
H            9.81865455158151       12.01562808181937       31.76200940390105
C            9.14638334297315        8.07855528125981       30.13563131935682
H            8.80790717706871        7.16220307025609       29.63768439616532
H           10.03963672283912        7.86261163021335       30.72662149938223
C            9.45784565582289        9.12122120093516       29.08892084056183
C            8.43528077746470        9.72250959264048       28.36576145490196
H            7.41328471997829        9.43382991959410       28.55859478695909
C            8.72433273121549       10.66871456864351       27.39849772183475
H            7.92082702203911       11.12927666049819       26.84285954262052
C           10.03910188829510       11.01753418496278       27.13737192302600
H           10.26410385333095       11.75263714115301       26.37911521131429
C           11.06398350863835       10.41939468503488       27.85024598198015
H           12.09138116077042       10.68713417951023       27.65266821076180
C           10.77497680590296        9.47670943100499       28.82251751213514
H           11.57216811851775        9.01550236309134       29.38739135567366
C            4.68465496287714        8.03715027886799       32.14083399122993
H            4.53390445631157        7.82565516840201       33.20233889620053
H            4.55645546856232        7.11424857015043       31.56286796205692
C            3.67801009573694        9.05813415130179       31.66720399169269
C            3.79850807233347        9.63414700311148       30.40859026781774
H            4.61648040507385        9.33789401478713       29.76953108406440
C            2.87169606947348       10.56416512935996       29.97184483321122
H            2.97661963577386       11.00453040621236       28.99107005618429
C            1.80944909378056       10.92213342720077       30.78537816248410
H            1.08470205231598       11.64590274811298       30.44332023497639
C            1.67848618613267       10.34722974970340       32.03793606499736
H            0.85292057584459       10.62213521386340       32.67757919598500
C            2.60811057102982        9.41980506927673       32.47798209027830
H            2.51280476937277        8.97612565559799       33.45878157931610
O            7.78717711803667       12.41326250946007       33.11689601898294
O            6.35592080487066        7.50138659523472       29.87858536833450
N           12.64267180879691        9.70576233068453       33.94165213232588
N           10.97948811904045       10.72956531396249       32.90206105193621
N           13.29201468266258       11.80236530659572       34.96644432429811
N           11.62051326656438       12.82631675669503       33.92945823395129
C           11.82092140781969        9.66096843346104       32.85690923061667
C           12.29388500409982       10.77720994359389       34.84862201065236
H           12.03940222979005       10.36391316437124       35.83487155253506
C           11.12738886936724       11.49202442212213       34.12264217693652
H           10.17711982017590       11.50241357935820       34.67443267380325
C           12.85539951722443       13.00060984213817       34.48214805862872
C           13.60874435906076        8.67923271995878       34.22835870115829
H           13.85229409977994        8.19502371422066       33.28045599712986
H           14.50137653022538        9.13157790175531       34.66504807277557
C           14.50500942376641       11.67594354605232       35.75168585812887
H           14.33239319803665       10.93586259411638       36.53697762376876
H           14.68523658436630       12.65630234510110       36.20843933970003
C           15.70890922423061       11.28636411974728       34.92776837814533
C           16.54440192477565       10.25748711605792       35.34661532504272
H           16.31414097106256        9.72627121834156       36.25892796883139
C           17.65640736636002        9.90898400040180       34.59843848469107
H           18.29692090322965        9.10669531775535       34.93357430144238
C           17.94224044575584       10.58398689552753       33.42418148536071
H           18.80870132397198       10.31202909913555       32.84000134450026
C           17.11470169092635       11.61137842305734       33.00212762979897
H           17.33556505052272       12.14574243789912       32.08990700739371
C           16.00627023228225       11.96342419421409       33.75167397709837
H           15.36937076746153       12.77569486312525       33.43578582145991
C           10.80586052844675       13.93794305601881       33.47748963752153
H           11.14236608507268       14.82022030955871       34.03478141626369
H            9.76356102093542       13.72567337782410       33.72837096955006
C           10.93761251613600       14.20925605921532       31.99810033036598
C           12.19165662957886       14.29502821228088       31.40652034136625
H           13.07218944615302       14.17065179450931       32.01838848802245
C           12.31080685784748       14.55320862122694       30.05247082104791
H           13.29116220047636       14.61807690719844       29.60389477653857
C           11.17798032755888       14.73647172903231       29.27694459846454
H           11.27211038187640       14.94186777358366       28.22112395410842
C            9.92495280247177       14.65859604984295       29.86018893847876
H            9.03738404995701       14.80031696276403       29.26168196796091
C            9.80480848881982       14.39485113819460       31.21428979882278
H            8.82797826347199       14.32409274569687       31.67059271937246
O           11.84366707096004        8.80937908286172       31.98382306265714
O           13.46171736743444       14.05625979462206       34.54702340995346
N           12.77598085500571        6.71739746740953       37.11678331749322
N           13.13599604598913        7.69192191517593       35.16318019156769
N           12.29374913877034        4.62575800588037       35.99598380824084
N           12.67412663967676        5.59569240405540       34.03957464972498
C           13.42168180276587        7.74113052847620       36.49282493493069
C           11.90589972140183        5.98906003928141       36.21828753590938
H           10.86688344203879        6.04878232132568       36.57274943936621
C           12.16463066173461        6.66617897209358       34.84890077591881
H           11.27855430073022        7.12107263252491       34.38449220690218
C           12.69056285589896        4.40744535871709       34.70914006168243
C           12.82235973944409        6.52468909336833       38.54134410383143
H           12.83920468923576        5.45633365217393       38.76752227740178
H           13.73642718692837        7.00352232132487       38.89894719885643
C           12.08217221178684        3.54655549713954       36.93987916576348
H           11.84688115938605        2.65504704348845       36.34640462044886
H           11.22561840214471        3.79893698564667       37.56991576475303
C           13.28821985629384        3.25978386494112       37.80264651316607
C           14.55957306321614        3.20027485565136       37.24618800051083
H           14.67977581678244        3.35683413823806       36.18507466603546
C           15.65990911348908        2.92791749923579       38.03974921848286
H           16.64316962287424        2.88542748541191       37.59480491397944
C           15.50019284594085        2.70314852343908       39.39692974536209
H           16.35905938706928        2.48875964294169       40.01530939661185
C           14.23528145992018        2.75285668001382       39.95751348110615
H           14.10273139241175        2.57858343301399       41.01498066020156
C           13.13423337427334        3.03124337303815       39.16539619091393
H           12.14808106911942        3.08519755675157       39.60353134063833
C           12.91505958219551        5.68874139036435       32.61321777361244
H           12.24966212087301        6.44990037347887       32.19857263559584
H           12.65865114873263        4.71061812946919       32.18936661440977
C           14.34973858744432        6.01428520505777       32.27290447000081
C           15.39345850791745        5.34718331681110       32.90169648545840
H           15.16830552074738        4.58541502363308       33.63251036908790
C           16.70705894304248        5.64425147640363       32.58463581559236
H           17.50947587078846        5.11907486655265       33.08143322870129
C           16.99151278462591        6.60559810135187       31.62901174722387
H           18.01693959014352        6.83568012517269       31.38102316999660
C           15.95696664595279        7.26949268950515       30.99227017661994
H           16.17145283823956        8.02047602281953       30.24647071995726
C           14.64220314907469        6.97630182563939       31.31308253278145
H           13.83290150847941        7.50069485685222       30.82604050613056
O           14.14456310576383        8.56028040631339       37.03575063928224
O           12.99136486185196        3.32705530302981       34.23183096626182
N            9.68705982727357        7.13976202104461       40.17699206015428
N           11.68589267741958        7.07828324853323       39.22895569627406
C           10.62912286434276        6.31897671172328       39.63097385955134
C           10.00682354153743        8.54013763738609       39.98671901358311
H            9.25253113891155        9.01567694204582       39.34376091760623
C           11.43310692029996        8.49372944887555       39.38437115164073
H           11.53916232858457        9.00069595802582       38.41487852352401
C           11.48317588668694        9.62625233844299       41.41617202263716
C            8.40452134584324        6.63806063218702       40.59981167478067
H            8.07971901548904        7.16571742166153       41.49954405592814
H            8.55377304919395        5.57410403581145       40.80670219145810
C            9.11687872975466        9.67427032221999       42.09281329692501
H            8.17747037804473        9.65044376243723       41.53278199166927
H            9.31413725070087       10.70676851400686       42.40367021349867
C            8.99220534366892        8.81564680733681       43.32989860104339
C            9.79651793827194        7.70826362837738       43.55471308984729
H           10.54303437953300        7.42707470476923       42.82619704494869
C            9.65085767091481        6.95773891186488       44.71019937933494
H           10.28687175250435        6.09963213944350       44.87097338130728
C            8.69890471647286        7.30536273195313       45.65157986083280
H            8.58831999450795        6.72111119594370       46.55278135010019
C            7.88916174555045        8.40854224050509       45.43213772811583
H            7.14353299553867        8.68694900230463       46.16196956621124
C            8.03605860468056        9.15817949133473       44.28016297752797
H            7.40761632773977       10.01962534418342       44.10747498211023
C           13.64596590234376        9.43610274370486       40.24309249086682
H           13.86448548697040        9.57485678851149       39.18132778176475
H           13.81934841235166       10.37730725326536       40.77766080302937
C           14.53610114939358        8.36341568193910       40.82328525528375
C           14.27726258714960        7.84056099338023       42.08402106103357
H           13.44209599523398        8.22125689749732       42.65316694330804
C           15.09056432083596        6.85372484308842       42.61259872351538
H           14.87820448693247        6.45458800215263       43.59341679623773
C           16.17554849811699        6.38504832820409       41.89033193061886
H           16.80929270857109        5.61498921968738       42.30408161809806
C           16.44641923944048        6.90928114198240       40.63815408283301
H           17.29121586130271        6.54982138113200       40.06978953810947
C           15.62979399104445        7.89291155537419       40.10610676461632
H           15.83351573687991        8.29783489102171       39.12521350333310
N           10.18138219275914        9.27914317952501       41.20114159026673
N           12.23578611406339        9.13564761513202       40.38863254834404
O           10.54198457741562        5.10701980479694       39.53870414931054
O           11.89636965890295       10.28858031910627       42.35109619942135
O            6.43426979223593        8.70866485226974       40.47877525559770
O           -0.47258365645927        1.88930093734119       40.91979133133745
H           -1.00314204698534        1.77911179088577       41.72791055092404
O            0.54451220409602        3.48836878258787       42.08976421452114
N            5.73246586536621        7.76669331712613       38.50218032338477
N            7.37166278734270        6.79305829612366       39.61710726484409
C            6.51315305504830        7.85220678414619       39.61040456458730
C            6.10108413682986        6.65298455864130       37.65917642508995
H            6.32549494140096        7.00456713795981       36.64634059350710
C            7.36655013340235        6.09346896682223       38.34876687391786
H            8.26800586197205        6.34872017509064       37.77705285823972
C            7.25845276637859        4.57780207203507       38.49823175768567
H            6.90747910243412        4.30523977320870       39.49291009501767
H            8.19652434479021        4.06844721764102       38.29573350574933
C            5.02888950399920        5.54902829023855       37.58522910159670
H            4.39157550482169        5.68893689313774       36.71092697708954
C            4.70844459515512        8.71789089033358       38.17614078581575
H            3.88222604661511        8.20694566017480       37.67437256724840
H            4.37686970410472        9.18175487586676       39.10855598484505
C            4.17641536554797        5.40634118095297       38.84309508387535
H            4.81673309694495        5.19237348684657       39.70019402306177
H            3.67358224846160        6.35414103876475       39.04115792577593
C            3.12969608233162        4.30444395582770       38.69542518520936
H            3.63143547810517        3.36524429623049       38.45612197649120
H            2.46768486791291        4.55039905917327       37.86269858560040
C            2.30927744403684        4.14019405997480       39.97188059240313
H            2.96819714565195        3.90047402255660       40.80830669903326
H            1.80740252433851        5.07895252743191       40.21396682503021
C            1.26676352569610        3.03635597279902       39.82558927872611
H            0.58597851246693        3.25161635884751       38.99924109647409
H            1.74413466182580        2.07912774111317       39.60476835190756
C            0.43704181331350        2.85788623324160       41.06457666699423
S            6.01979682187232        4.04362907100679       37.28189351308299
I            9.21917808235306        8.88298235369659       36.13419033954371
