221

C            1.80577529687932        1.06241790424332       -3.36146918261843
H            1.85707489481090        0.22298977225649       -2.65836251677410
N            2.92831916028885        1.07791916602472       -4.25899106695606
C            3.58995447609271        2.27782495726928       -4.21836138378143
O            4.59183948932371        2.57515220984734       -4.84457017466476
N            2.93798085058175        3.10512158720653       -3.35315235062321
C            1.83164582027504        2.46269317861705       -2.70227008576281
H            1.95176748111146        2.46355780685117       -1.61178179541811
N            0.54867467361968        3.03090439064962       -3.05691338115973
C           -0.20270248066463        2.17228366928244       -3.79813800243968
O           -1.33240669627655        2.39363847174359       -4.20674284898913
N            0.52327488936620        1.04908661732422       -4.04694593680466
C            3.42403683798738        4.41555518288266       -2.99709085978210
H            2.92100346856541        5.19143762860850       -3.57908465809234
H            3.25851100596893        4.58777203034239       -1.93379210699446
H            4.49069752496067        4.44780393841704       -3.21762271603413
C            3.55840088353988       -0.14899721786503       -4.76291278674967
H            2.85738329787988       -0.96199823881871       -4.54726985850770
C            3.75476248654313       -0.04879924795757       -6.27300004543640
H            4.26326906646420       -0.93814062603443       -6.63452501833875
H            2.78836020949730        0.03002589954060       -6.76534392403646
H            4.33759197842159        0.83392656372502       -6.51918777303587
C            4.82750521056628       -0.41536014141659       -3.97675484723641
C            4.70994312961034       -0.94441621588522       -2.69407609105754
H            3.72853103299930       -1.18057351227262       -2.30401651941407
C            5.82783689933393       -1.18062223168762       -1.91427463976275
H            5.71753299134737       -1.59044486118923       -0.92016659515668
C            7.08775735285696       -0.89081985683893       -2.41153050224942
H            7.96268647169256       -1.08014031054175       -1.80781587766675
C            7.21593203438780       -0.35895025762883       -3.68257201708365
H            8.19470768173979       -0.12456757063216       -4.07441898885505
C            6.09476836042890       -0.12023296590729       -4.46031285264939
H            6.21248673146686        0.30784958381648       -5.44146386103735
C            0.00969002366342        4.24250354036915       -2.49628150356707
H            0.80085254698690        4.99230471226285       -2.43017049000755
H           -0.78967272132108        4.57017567492666       -3.16538489668034
C           -1.72871985984749        3.32423577640159        0.70048247804936
H           -1.68467794836056        2.31037242927795        1.12139399250530
N           -2.94603132054403        3.99600642083038        1.05963753454681
C           -3.65376365477875        4.39328387290701       -0.04236302097109
O           -4.74201191330435        4.93982648755161       -0.04209463323356
N           -2.93191280477636        4.08312443108415       -1.15665904581554
C           -1.72890780956721        3.36640355877936       -0.84739284004985
H           -1.71657842120427        2.37688813226120       -1.32789248217926
N           -0.51975510219564        4.09265023348891       -1.16579635839868
C            0.21366610884054        4.37535596903108       -0.05216687475023
O            1.31438010553411        4.89855391602364       -0.04471983161032
N           -0.52480959903727        4.05570435288667        1.04984534483084
C           -3.43751013898480        4.28913889788560       -2.49298240136401
H           -3.06545264917853        3.50435534845446       -3.14898403399896
H           -4.52584254443876        4.25174949672973       -2.45395908188448
H           -3.13273385328056        5.26636789827676       -2.87545568486969
C           -3.55686452252706        3.93838831312238        2.38988933817549
H           -2.82929447987299        3.44052336454990        3.03891929930174
C           -3.79234518843831        5.35736587761041        2.90086354262470
H           -2.85072609260532        5.90178451910473        2.90988491879134
H           -4.18922729703724        5.32506598973892        3.91137169609287
H           -4.48460549640951        5.87846880802385        2.24517492401412
C           -4.79488789308068        3.06218014581869        2.35113625953382
C           -4.63966484704799        1.72183690022390        2.00530141635174
H           -3.65876216250487        1.34238551313686        1.75099792202021
C           -5.72143989019841        0.86080244806010        1.97724353696420
H           -5.57624263142294       -0.17682926574314        1.71248171807467
C           -6.98606850259455        1.33034977815401        2.29118862718419
H           -7.82973531498223        0.65681585248160        2.27254402688374
C           -7.15409416866621        2.66259386413029        2.62342141022265
H           -8.13788839759642        3.03973375222637        2.86144534716024
C           -6.06785617928405        3.52221821410600        2.65592669559064
H           -6.22432826427537        4.55607308440385        2.91388937838535
C           -0.00124262511343        4.18861120733284        2.38473866658803
H           -0.79860410209833        4.53090845974648        3.05043519223654
H            0.79793591460848        4.93199449502564        2.32858684399621
C            1.79907227885597        2.36782139020204        2.63613663148459
H            1.85670283918835        2.17855727895734        1.55785096929865
N            2.92232384985565        3.13129618154790        3.10631117098278
C            3.57198223491015        2.49447478246122        4.13158698078301
O            4.57106177170332        2.88386353384687        4.70998389932241
N            2.91093963911528        1.33573895206519        4.41213875201480
C            1.81256595882087        1.09679134344234        3.51916552133436
H            1.93460480318054        0.15191574787408        2.97534946257552
N            0.52383504653074        1.12318374832567        4.17657496826664
C           -0.21912904143568        2.19896870680132        3.80064390040268
O           -1.35024397248792        2.44722103281590        4.18940971632752
N            0.51719010005602        2.97418372144986        2.95930384671796
C            3.38614509976681        0.36854802201838        5.37078629615736
H            2.86689603706977        0.47649111534277        6.32599184883374
H            3.23200615395467       -0.63716598751419        4.98004049510682
H            4.44948570687988        0.54796284764974        5.52704744664398
C            3.55975901903869        4.18330692274806        2.30457928421432
H            2.86495247475922        4.40708911207442        1.48849938498289
C            3.75241619489803        5.43754133112102        3.15233671786609
H            2.78464741010077        5.82502731501365        3.46196913467229
H            4.26631252830034        6.19650843359245        2.56923186865654
H            4.32896379133189        5.20498287517148        4.04286462656340
C            4.83248670508221        3.63702694146911        1.68712284747505
C            4.72137091495161        2.80070381857052        0.57937052169472
H            3.74240017408242        2.58636735960411        0.17145907381547
C            5.84265363151244        2.24622104463460       -0.01158340960187
H            5.73706536151622        1.59849799955881       -0.87033983427094
C            7.09927814390733        2.52449536129449        0.50036581763804
H            7.97678396308518        2.09896713685539        0.03688311494495
C            7.22085293891723        3.34910037123350        1.60493932096859
H            8.19732705339855        3.56536298011061        2.01293018392538
C            6.09655946018866        3.90119064358072        2.19644457801467
H            6.20933587503874        4.52951440997425        3.06393271767623
C           -0.02505582458153        0.03231708775529        4.93917498836013
H            0.75996469323573       -0.40400532056387        5.56043662240398
H           -0.82760859592051        0.44931280594234        5.55233107259909
C           -1.75693243427916       -2.26933889630463        2.53317227272848
H           -1.71207704765319       -2.12634832234001        1.44482273368528
N           -2.97519454978110       -2.91565672875784        2.93407293480455
C           -3.68438627009423       -2.15831230120302        3.82698400148917
O           -4.77321294816394       -2.43100626272010        4.29930990623780
N           -2.96304891149066       -1.03808374943835        4.11520239584272
C           -1.75717625557490       -0.95005839874165        3.34412449926778
H           -1.74077774512889       -0.03873858560955        2.72824153837555
N           -0.55183896261706       -1.04121139937671        4.13752779812756
C            0.18088165097855       -2.14796260693521        3.82730008552863
O            1.27800916736772       -2.41937779523621        4.28329556943258
N           -0.55397223843311       -2.93882648657448        2.99299865976719
C           -3.47119833261587        0.01855381672569        4.95714127677114
H           -3.09929207460972        0.97808904529374        4.60255788606280
H           -4.55940350728612        0.00193029076115        4.90304383591172
H           -3.16842196984363       -0.13472898640409        5.99589721149542
C           -3.58963747511791       -4.03382979799181        2.21364257893928
H           -2.86369528013929       -4.34571879714721        1.45599438802899
C           -3.82869016510282       -5.18973008077215        3.18144262928807
H           -2.88574229301149       -5.48543861232085        3.63579861379185
H           -4.24299544131412       -6.03937869290822        2.64658226963630
H           -4.50825292056644       -4.87932839882325        3.97048026388563
C           -4.82715110990510       -3.55266998147761        1.47954177197584
C           -4.66634070937526       -2.59717859388901        0.47885651253878
H           -3.68029893703855       -2.20860691058960        0.26074660206207
C           -5.74873551972467       -2.12978250654912       -0.24397870762101
H           -5.59982626172043       -1.39243926351784       -1.01992177300346
C           -7.01916464765182       -2.61022981583575        0.02733515484331
H           -7.86369604085410       -2.24791412422067       -0.53948282377530
C           -7.19245236188015       -3.54974277045772        1.02774439665258
H           -8.18085795141512       -3.92312033656013        1.25233193582249
C           -6.10584675281370       -4.01966526650855        1.74766245912009
H           -6.26613272653961       -4.74709621821414        2.52548663091317
C           -0.03101020499028       -4.16276054421480        2.44320063649308
H           -0.83039542703769       -4.90819627816814        2.40382631332350
H            0.76490684045685       -4.48816225467592        3.11796290480166
C            1.77706152264347       -3.47679263380787        0.74488457222191
H            1.83498067303096       -2.44648545332448        1.11406592038014
N            2.89715132375230       -4.26509403966350        1.18277637843392
C            3.55551107214796       -4.83400913504071        0.12215292071300
O            4.55648184769075       -5.52645577234851        0.17568008327932
N            2.89947135307051       -4.50396253682296       -1.02585974926803
C            1.79744601851250       -3.61355767415978       -0.79641445766925
H            1.92032086405529       -2.67282905434078       -1.34732893668481
N            0.51157840673747       -4.20124412920715       -1.10475163403943
C           -0.23842949833045       -4.40294771571487        0.01255488358117
O           -1.37109103993188       -4.86005550400439        0.03006297589437
N            0.49256592145854       -4.05548533465174        1.10589550997427
C            3.37541594402553       -4.86410392199975       -2.33891272939142
H            2.86737452906587       -5.75840535896460       -2.70756518545270
H            3.20633643594214       -4.03497472915066       -3.02566302211874
H            4.44224302121880       -5.07255872917105       -2.26276346709111
C            3.54342776829401       -4.05163043884845        2.48490627491149
H            2.82906420397602       -3.48360770817334        3.08930662201665
C            3.80801425993272       -5.39337489078660        3.16184530457055
H            2.86458740112871       -5.89110441913100        3.37308077297181
H            4.33857290410737       -5.23134477896175        4.09586024468791
H            4.39631235105248       -6.03486790524403        2.51251289407626
C            4.77398220281934       -3.18667793229450        2.29342801718112
C            4.60130353742445       -1.81056304484337        2.17049338218994
H            3.60701905402998       -1.39085897436211        2.24987740084730
C            5.68064663518495       -0.97232098518552        1.95671280245117
H            5.52993386814332        0.09360912628400        1.86050318795755
C            6.95682966839933       -1.50286706653308        1.86622129806231
H            7.80137425823822       -0.84990939662975        1.70601178582011
C            7.13949387767374       -2.87003193504697        1.98019057969106
H            8.13100769914001       -3.29124588822201        1.90329719752882
C            6.05669659045063       -3.70805038505464        2.19098714182892
H            6.21419037240895       -4.77120026352260        2.26159442351463
C           -0.03376211148367       -4.31451867030144       -2.43230410114978
H            0.75098839569954       -4.64132099585058       -3.11780063065215
H           -0.84172323750946       -5.04818902624191       -2.37910507333127
C           -1.74436595554242       -1.07061762681997       -3.22784665940071
H           -1.70215074410510       -0.20107784660033       -2.55788365180822
N           -2.95576728959392       -1.08892702949743       -3.99947001801037
C           -3.67209432786377       -2.23778392245728       -3.79507228708888
O           -4.75801290506270       -2.50611364058091       -4.27636163194284
N           -2.96157678196188       -3.05047780438964       -2.96246988151405
C           -1.75533862705000       -2.43351632557043       -2.49315882606951
H           -1.74404461134400       -2.35748847378464       -1.39578570337302
N           -0.55041648081908       -3.08022394499344       -2.96346280769784
C            0.19218947870020       -2.25935791421448       -3.75898582275837
O            1.29179893051923       -2.52170705111078       -4.21446939967877
N           -0.53548125632741       -1.13719450615754       -4.02796006403894
C           -3.48026443061273       -4.30492927615478       -2.47137728028637
H           -3.11252350157835       -4.48121784384719       -1.46223979385913
H           -4.56812575576163       -4.24226780361901       -2.46186409231425
H           -3.18143201962795       -5.12925306188177       -3.12351773481844
C           -3.56512099601182        0.10217573659146       -4.59805875820965
H           -2.83499425085257        0.90958559560621       -4.48359031260427
C           -3.80739623180913       -0.14399548367132       -6.08478554083065
H           -2.86506897150356       -0.37979073823755       -6.57404991232489
H           -4.22778074250210        0.74717314765618       -6.54177129978578
H           -4.48354106291829       -0.98404162719272       -6.21765262958546
C           -4.79981386867962        0.49622888676733       -3.80949691028860
C           -4.63147902644723        0.90623933690682       -2.48910030101841
H           -3.64105099350773        0.92138423238292       -2.05379722474459
C           -5.71170841587528        1.29404989474778       -1.71770202542866
H           -5.55721048292062        1.61549280034854       -0.69760668872527
C           -6.98757204378272        1.27225718607521       -2.25635080454189
H           -7.83039730679071        1.57734919017154       -1.65433318569443
C           -7.16810168823714        0.85463115286053       -3.56278063214379
H           -8.16060022936557        0.82606971618882       -3.98812520853544
C           -6.08359224835808        0.47110155432553       -4.33515188126853
H           -6.24888509689513        0.14376545192047       -5.34777915164213
C           -0.00514934539980       -0.05145606579462       -4.81081801822210
H            0.78958577894943       -0.47733950633593       -5.42854834691548
H           -0.80102890670258        0.36044855739762       -5.43781767253452
Re           0.05400119719860       -0.00967236677520        0.00648283551646
O           -1.63300648571815       -0.00038704269077        0.00443874430081
O            0.62370374001224        1.57363381740581       -0.11061298390579
O            0.61300983006706       -0.90961508618269       -1.30577912150716
O            0.61044083641481       -0.70030021977432        1.44114458876656
