199

C           -2.25087397070804        3.48672649366295       -2.69604168877646
H            2.40304354569413        1.39624144952651       -0.01301104305821
C           -4.33054489865458       -4.01085775278145        1.12048122098187
C            5.06005988497776       -0.43493423619248       -1.02797687286987
C           -4.80832584542117        3.20589966877278        0.96632797781639
C            2.97096932853369       -1.61050497049390        3.10267734512602
C           -5.35979851589779        1.81770143568042        0.65467704613444
C            0.73930687829551        4.75718583453075        1.78446834138101
C            4.08878595635467        3.62596323528071        0.71320121558428
C           -2.07062335508767        4.82538355790856       -2.00938297045749
C           -1.79169916091522       -6.39003110736782       -0.14341077093372
C            3.47359341599454        1.34885308396502       -0.26566377691903
C           -3.65801815201862       -4.97728947665742       -0.84800235386548
C            2.35218011397084       -3.00463003382595        3.12535203045212
C            2.55339216834837       -4.85131201555933        1.38675033091094
C           -0.61444325017159        4.98982819151195       -1.58731320274834
C            5.21435400234283       -0.88204771134493        2.17994311957710
C            2.05055526932468        4.07076324245475        2.15963422293870
C            4.77955159565089        1.48473887121100        1.65343744245906
N            1.21181833193641        5.69407448558642        0.77336741922951
C            2.28840558148140        5.13546878597019        0.14510090747406
N            4.65120414146105        0.16433412278216        1.36456156451550
N           -0.51323770539778       -5.73467386581240       -0.20586718360360
C            4.07716402680740       -2.94570519095930        1.61158071451040
O           -7.18019046413561       -1.37447305434150        0.07888600292679
N           -4.66528496872297        3.74993724213410       -0.37156755254150
N            4.26518811758864       -1.90505818217664        2.49839299446890
N           -5.48260267376046       -2.08461689732871       -1.30164140053685
O           -5.85571429692384        3.51617526774823       -2.32700640120119
N           -0.74421604238561        6.06222993309460       -0.60826645136205
N            4.23482691761729        2.20377933886467        0.62658692769607
O           -2.32231517526571        6.49862598508751        1.02115390295633
O           -3.66451143305985       -5.34276139207988       -2.01455709043268
N           -4.43425536961243       -3.98346255196585       -0.32602248141100
O            2.81385653669318        5.54905246373712       -0.87787080158738
N           -6.33123308036995       -0.04777763594021       -1.60826464869032
O            0.17748122896330       -6.32989681820248        1.91447257338646
N            2.72674067248385        4.05518523205679        0.87222964754454
N           -6.16878424969512        2.11434672942149       -0.52036599388814
N           -2.90251785323826       -5.52685023773534        0.15737686776461
N            2.89908796190094       -3.55994737779103        1.90091374512025
N            1.33505304345976       -4.81225881379416        0.62854957314256
N           -2.74872637845162        5.10258631585015       -0.75697994492892
O            5.31632368703360        1.95001029124974        2.64645660501483
O            4.85984087818150       -3.27937481397478        0.73411551992166
C            4.05461693539092       -0.04081287367197        0.06725669690836
C           -4.92507034821653       -1.59676987987017       -2.54884268816345
C           -5.00393194833278        0.57349573689461       -3.73800542232704
C            0.25049996211375        5.16319724351465       -2.81988537086152
C            0.36914862048225        6.64139899999003        0.09364386728072
C            0.31199771289124       -5.68341991104602        0.88600056081152
C           -6.39929815744996       -1.18175165859796       -0.84201652497161
C           -6.99802997009974        1.16097735362256       -1.20593522285926
C           -3.48784151404092       -1.90067980659010       -2.91997089466135
C           -1.96938572816925        5.93124632515484       -0.00275491741566
C           -2.94692107037870       -4.62715241685036        1.30162780577922
C           -5.59256310501920       -3.48466473990664       -1.00781704204234
C           -4.17648007977092        5.07351610260280       -0.62652230356261
C           -5.58147079220349        3.15385299702465       -1.19146119879790
C           -5.09618815160554       -0.09066552884381       -2.37851164854387
C            0.05473768760373        5.26890323464633        3.03589671935703
C           -3.25983665842444       -1.22531482030036       -4.27820824885567
C            0.85275792717467       -2.88033165487869        3.30717324754908
C            2.89468938913893       -0.99756402901921        4.48601507593706
C            1.29821068701872       -4.45573556404403       -0.77922908440022
C           -2.82352811268898       -5.16198360270022        2.71503573043976
C           -3.60321413416698        3.08272679800676        1.87620264246352
C           -0.19107145076650       -4.60937589845665       -1.07406225076075
C            0.99761819168172        3.17853997821298        4.16463770993095
C            1.77658534497213       -3.09412679830607       -1.24117145953520
C           -1.36085039279950        3.52963743874644       -3.94492626416688
C           -4.42292940710640       -2.72648309781697        1.91923959248416
C           -3.58740972146462        0.27219091537532       -4.24749369596052
C            0.09862015047489        3.85807048973924       -3.61249253021440
C           -0.24867318265714        4.02366673771740        3.87901478470420
C            0.65438968211064       -2.21827677010182        4.67774231092779
C            1.55553454010043       -3.06025483126056       -2.75855529403103
C            1.74463611996981        2.77510090732434        2.88621702727357
C            1.39682526053805       -0.88226621486482        4.80060996434384
C           -0.40022581568098       -4.70064062016018       -2.57223964288616
C           -4.12135402060740        2.43739440615718        3.16875725920179
C           -5.99169426550276        1.23682497208786        1.90369222261238
C           -4.24850447439849       -3.13898397449680        3.38707745304676
C            0.10518599228252       -3.36909359879853       -3.14596984097197
C           -2.96298257802075       -3.93912462200301        3.63290566579914
C           -4.84561138544043        1.10938498582776        2.91636792423018
H           -3.29409538683796        3.32816191098170       -2.97453944488031
H           -1.94012003624305        2.67781345077151       -2.02789004388232
H           -5.09777403824581       -4.70771882556232        1.50109140492196
C            6.42817890254989        0.23397031545051       -0.91043656866874
H           -5.57642295712294        3.80050291516860        1.49285513118217
H            2.39201719452607       -0.97397144651664        2.41332518196283
H           -4.52548816665779        1.15851805449903        0.35932354657524
H            0.07511655748239        4.01941118482803        1.30548460233276
H            4.70497097554183        3.93504853794429        1.57047576997246
H            4.45357831844317        4.10480997588353       -0.20461925087638
H           -2.34324060975886        5.61979893212083       -2.72699230236292
H           -1.70634639130530       -7.15312966514393        0.63712050777194
H           -2.01226674888056       -6.84701714524885       -1.11342885609278
C            3.66343969807582        1.65332030353191       -1.74991821737771
H            2.75922808625572       -3.58305449429379        3.97229245953318
H            2.39309221468935       -5.55932661833339        2.21087112242561
H            3.38932780194017       -5.17769655988107        0.75256357295348
H           -0.28973662725862        4.07216101525899       -1.06741301574944
H            5.57469534920402       -0.39869746301583        3.09322515368807
H            6.04127790052064       -1.38392780270341        1.66095931173514
H            2.63236198867924        4.71781537377474        2.84051803932033
H            3.26078320529886       -0.79388123007567        0.11458762724147
H           -5.57208254792622       -1.95326239731378       -3.36993131658076
H           -5.16156963244227        1.65074027541599       -3.66421805638473
H           -5.75553703465396        0.15987135116545       -4.41245801253893
H            1.29543995632482        5.32311370040568       -2.54991357739765
H           -0.09302385770019        6.01577379863828       -3.40801544543869
H           -0.05236533517786        7.33731570044125        0.82558353982573
H            1.00980045624953        7.16689328731947       -0.62192111024414
H           -7.81705944367932        0.85202822238836       -0.54760972141395
H           -7.38419139700827        1.67526048314849       -2.09263810562446
H           -3.31944512844243       -2.97655744724666       -2.99226945186217
H           -2.80854686628721       -1.48939174339876       -2.16794743943134
H           -2.18142778717381       -3.84344695406819        1.16542772502745
H           -6.48067372381567       -3.61557286239532       -0.37536891961098
H           -5.69133460825257       -4.05361990284080       -1.94220634324670
H           -4.43651746339390        5.74084357479196        0.20619625242824
H           -4.64636797649270        5.41542024793827       -1.55955828609157
H           -4.27193228364718        0.29556714831886       -1.75385682059828
H           -0.87037628802853        5.79167455143596        2.78692593333142
H            0.71107225660256        5.95460665014272        3.57454936430828
H           -2.21695230010313       -1.34852712362395       -4.57127300419003
H           -3.88326409093964       -1.72150520370557       -5.02570356875028
H            0.43246613861871       -2.26010392601637        2.51167051679262
H            0.37196652113360       -3.85978280158078        3.27974936830100
H            3.36064009482179       -0.01120040009543        4.50604438305544
H            3.39824517385028       -1.63616237470286        5.21308338917723
H            1.86512271215916       -5.22119070715443       -1.33823482883214
H           -1.85722999332462       -5.64454347915297        2.87019663527562
H           -3.61154360017784       -5.88975808634089        2.91276401228198
H           -3.16893559812684        4.06333331898494        2.08206704480878
H           -2.83777350274072        2.45851662781067        1.40646180525048
H           -0.72487162817209       -3.71280572065042       -0.71176667665299
H            0.70082902762488        2.28128210901991        4.70849153879733
H            1.68191010192037        3.74517257121405        4.80066455254761
H            2.83549950875440       -2.95753930045565       -1.01305794663108
H            1.20784277040558       -2.29716420169081       -0.75357307992416
H           -1.39691086569105        2.56353852425104       -4.44880130667242
H           -1.75510887192273        4.28382399152048       -4.62998044578315
H           -5.38986573664328       -2.24259673449736        1.77083181326852
H           -3.64180287081688       -2.03011308476865        1.60586839918740
H           -3.46555426424131        0.68781492465889       -5.24871798022498
H           -2.86959777548904        0.76383949014734       -3.58741146943823
H            0.67512431160455        3.92008393654259       -4.53661021944924
H            0.50877671491489        3.03897891109582       -3.01508765610400
H           -0.70301616518681        4.32433034766069        4.82396995785237
H           -0.97091347405220        3.41142938634567        3.33515636111184
H            1.01053561090595       -2.90298399000896        5.45065686496644
H           -0.40872846413133       -2.04509136619990        4.84803273532945
H            2.22168895969361       -3.78935653605229       -3.22593519164082
H            1.82150772369544       -2.07216674335286       -3.13569456224284
H            2.66200354777256        2.23993396455899        3.13933183950275
H            1.12383641573091        2.12913560780482        2.25860155917694
H            0.95408956450162       -0.17168713331837        4.09903149259195
H            1.26436272020905       -0.49061757737482        5.81013948875362
H           -1.45458286129752       -4.84403100173155       -2.81421469939581
H            0.16701483779543       -5.53757312154957       -2.98246099690808
H           -3.28571904952549        2.26018487592574        3.84677406581991
H           -4.80620454764329        3.13588534924274        3.65583199269017
H           -6.43401935050752        0.25964684330066        1.70394509339811
H           -6.77194264954617        1.90137724964533        2.27870176809849
H           -4.23584354022406       -2.24712265666990        4.01414429323803
H           -5.10998924236486       -3.74270452139211        3.68101568282758
H           -0.52944810851706       -2.56049508152757       -2.77593062116000
H            0.02176760764527       -3.38907207819755       -4.23329702268304
H           -2.93709386825331       -4.26331889359014        4.67396009749458
H           -2.10558577880703       -3.28511943132196        3.46328656527158
H           -4.12487322316459        0.38649601359457        2.52810651779281
H           -5.23449319345108        0.72699475836116        3.86108373245443
H            5.16452241618527       -1.51973798367492       -1.07155687479581
H            2.73677848224719        1.96347590880447       -2.22642759081500
S            4.20842038418432        0.10809383559333       -2.54267342230515
H            4.42150575462709        2.41915071481722       -1.91156488927483
H            6.85598602581918        0.02010496306994        0.07076412507533
H            6.30176455500941        1.31590739054535       -0.98088960845426
C            7.39642559603493       -0.23832850173551       -1.99562840004371
H            8.21592506134315        0.47890124430909       -2.07099087753290
H            6.86720394424296       -0.25497370593953       -2.95102040970941
C            7.98260174231178       -1.61862495344917       -1.70282704658525
C            8.85529294696136       -2.11284604366272       -2.85451217679752
H            7.18039558062395       -2.33706493891799       -1.53234167065821
H            8.59011518741974       -1.56560912190150       -0.79692838876322
H            9.14650765162360       -3.15184310345249       -2.67994062955544
C           10.13260292668067       -1.32898009928949       -2.99503036286886
H            8.31892173125140       -2.07295664855623       -3.80287503808215
O           10.63466395502790       -1.41199367106877       -4.22464945037914
O           10.68287372152128       -0.70604814973513       -2.11670325036522
H           11.47314110355179       -0.92241807218358       -4.30862168701455
O           -2.26544654240551       -0.15750448560219        0.44316076305966
O            0.47602479018285       -0.42857748822718        0.78871968663494
Re          -0.74295522505503        0.39602014565576       -0.06110782387397
O           -0.60162854806650        2.05756283531810        0.26451602804886
O           -0.55820140009944        0.13244616880323       -1.72279457992419
