157

S           -4.49158711762087        8.44967455058859        5.89850063772270
S            1.35746297649113        7.72066633472787        4.50893032608819
S            2.51678786607325        1.00181562653798        6.87114571521361
O           -5.03454968627830        7.59367853723421        4.87848547539275
O           -4.23018286888417        9.80638228014633        5.48366529229815
O           -4.11240269586726        5.03836233296627        5.40927311576085
O            0.32611678587070        4.66963505950845        4.52927389128223
O            1.68753797977445        9.12042553959853        4.47945197690756
O            0.81253252398805        7.19606407335577        3.27936484765502
O            1.38212853083256        9.96670852050933        7.10254123006281
O           -3.05872485169789       10.42635113496415        7.98910825666812
O           -3.57518855044878        2.30942870215594        7.53125063264902
O            1.88791446892379       -0.06214169382634        6.12516716939897
O            3.53496932427123        0.57247194972756        7.79481981922933
O            0.12788803654120        1.82654930758243        4.92872299386859
N           -1.97586568470591        4.64576144599404        4.64494801009943
N           -0.79480693133577       10.56539597380863        7.58002748165488
N           -1.92358539258809        2.04301807296774        5.95789920405327
C           -2.81655524027323        7.80422377836645        6.29812783203799
C           -2.30314199018498        6.63583243464656        5.75028849745764
C           -2.97577164030530        5.39117198097151        5.26201640258327
C           -0.71980812124062        5.19755193813922        4.80845956525118
C           -0.93866846471660        6.51105641917813        5.46870610275905
C           -0.02961916842937        7.53342080325557        5.69372621404530
C            2.76046344644362        6.73620550494633        5.08165315576905
H            2.45014745109766        5.70157256810737        4.96722631041618
H            3.57710522731764        6.97433596613688        4.40412483332772
C            3.05156430337783        7.13814609644975        6.50794496338284
H            2.26206838309139        6.79120092914845        7.17106083824284
H            3.10515367754283        8.22229522308981        6.57984542077865
H            3.99282867020911        6.71076482562470        6.84131114929031
C           -0.50768385231671        8.58600878640039        6.45921554140914
C            0.19713257075207        9.76864182293531        7.03932469322636
C           -2.05359651540982        9.98530395269932        7.50134164783152
C           -1.86780024295429        8.70989453109912        6.75530801496999
C           -0.60497893770079       11.81840101127930        8.30395447375981
H           -1.48569951286059       11.90014770699867        8.95090157048756
C           -0.56693392568888       13.01615952926767        7.35186768463849
H            0.32507844080137       12.95257340778376        6.72560975133993
H           -1.44509030010216       12.98614401267893        6.70486825853481
C           -0.55695943297489       14.30605564667463        8.17058567269509
H           -1.48759358170092       14.37401088243954        8.73644072569518
H           -0.50614060947954       15.16155658552005        7.49698990491384
C           -2.19747156751988        3.40583173370904        3.90762940709312
H           -1.20912524723998        3.10692208184761        3.54214531767720
C           -2.76605423511392        2.28667792008402        4.79304055058109
H           -3.73809384738799        2.59601912462775        5.19309890852611
C           -2.43703887490209        2.04783998840221        7.25103420372130
C           -1.27337779185598        1.79128171857111        8.14305051177707
C           -0.12509559793938        1.76542842255168        7.34159119992516
C            1.15256620322801        1.69685130932215        7.86969027372040
C            3.14996884943692        2.30545137642039        5.78673228901582
H            3.96349970891814        1.84579520495024        5.23082956188868
H            2.33099883316927        2.56597789703551        5.12213720445451
C            3.61398578053257        3.44134396314607        6.66716727346279
H            4.21875600487393        3.04595522356802        7.48051233761932
H            2.76278630234837        3.96174618717764        7.09974480610512
H            4.20453790593320        4.15084642076695        6.09520885032224
C           -0.55479550859739        1.85950517190427        5.91917307310015
C           -2.91683515635927        1.00711636959706        3.96601155652261
H           -1.93136067874653        0.69590627034853        3.61454006344471
H           -3.31740752525554        0.21950208771252        4.60634551446623
C           -3.84470836326099        1.25315806155903        2.77997723679491
H           -4.83647273434395        1.52178908650204        3.14723439812721
H           -3.93284781249067        0.33702987162256        2.19594627774039
C           -3.30049904308970        2.37878408749634        1.90685580716424
H           -2.33220433440599        2.08796510995558        1.49605030384072
H           -3.98062839419244        2.56939815334798        1.07677250468626
C           -3.13999252356394        3.65525275366875        2.72756701103073
H           -2.72833549304185        4.45606980710394        2.11063509864951
H           -4.10989658237666        3.97989292577296        3.10738158334111
C           -5.49671770179074        8.38735312749708        7.40169364004567
H           -4.97558881927445        9.01416382602325        8.12008805595763
H           -6.45351820211935        8.83019270160841        7.13561129491770
C           -5.61715028172668        6.93958517817533        7.81297213849309
H           -6.27783267370572        6.83973728486074        8.66999795809277
H           -4.63979866915234        6.53745152957542        8.06872443820593
H           -6.01289630624441        6.35557051722984        6.98570208190754
S            4.49103358369156        8.49917512588162       11.72380001186561
S           -1.41677613131336        7.65384956357944       12.86498757573570
S           -2.52286288790928        0.86131178227995       10.51737239967326
O            5.03391981485092        7.63525539034017       12.74060518001178
O            4.26049804416567        9.86075300593615       12.15013456073911
O            4.10445109298382        5.09254020525982       12.16881563720374
O           -0.38253244227518        4.62829727460505       12.73062809837533
O           -1.80749457829018        9.03578060836164       12.97861028009184
O           -0.94838522897394        7.05646515615657       14.09601128420722
O           -1.34035293996491       10.07554494143758       10.44084418856774
O            3.11720878833031       10.50533356526298        9.60246722452033
O            3.49901352682998        2.46578176938125        9.86892488164500
O           -1.86405701197878       -0.19327838206814       11.25004171829925
O           -3.53717456690726        0.41450905274086        9.59730446216982
O           -0.16194100687804        1.70545097473873       12.46455649061095
N            1.92010199570266        4.64287186335187       12.73818006219053
N            0.84387606330541       10.63622795882665        9.95888767742695
N            1.87408301952994        2.04189917993454       11.43645576664796
C            2.82886970998909        7.87591391339835       11.29750096309258
C            2.30677620810137        6.68582161186684       11.77233220952622
C            2.95143518527100        5.43514453590383       12.24118578478740
C            0.66870524956582        5.17963111437769       12.49775942645358
C            0.91315366091275        6.51353785854990       11.90608284301761
C            0.02799419170236        7.58200238630353       11.76652733479469
C           -2.75801183245795        6.67976574755343       12.13867100819759
H           -2.41376090361440        5.65057317457403       12.17866673142381
H           -3.61067080590610        6.82835396964659       12.79582724132235
C           -3.00103816677193        7.19598764600173       10.74021543025704
H           -2.16670531671856        6.93970669190239       10.09064639462174
H           -3.09273814170921        8.28008249470812       10.76288612848079
H           -3.90737397454086        6.76294335414907       10.32729237448821
C            0.53010678231622        8.67509428927291       11.09180087866810
C           -0.15492525028263        9.86124129634681       10.51310577421547
C            2.10651730345623       10.05619851794756       10.08090069010311
C            1.90285553008630        8.79719575315954       10.81960613452852
C            0.66385727518334       11.84310580510444        9.16305987099587
H            1.54717122861278       11.88130714502840        8.51496005151955
C            0.63088736900040       13.10133952945232       10.03397231466469
H           -0.26089227627889       13.08284594355148       10.66351702012913
H            1.50870404453298       13.10732945059276       10.68214181250458
C            0.62813276230605       14.33471681690890        9.13266328106812
H            1.55945822771334       14.35969932603419        8.56443772857980
H            0.58233208253503       15.23292565522959        9.74850200707396
C            2.10695206908214        3.40381250738940       13.48022516897499
H            1.10324155056837        3.10592776133560       13.80343699671106
C            2.70319006179422        2.28861854267641       12.60879236607262
H            3.67537200569713        2.61461042488185       12.22212166279895
C            2.37778778466776        2.13404276969388       10.14536783114251
C            1.22531250360642        1.84381397414582        9.24845694851528
C            0.08317552268704        1.72471508781349       10.04996554953059
C           -1.18932965706486        1.61136246507914        9.51827905060698
C           -3.18315709854410        2.14623045430270       11.60847053027297
H           -3.99756489730512        1.67419180838677       12.15225364745865
H           -2.37499958257619        2.41187552498534       12.28392550398319
C           -3.64769859175067        3.28584279921917       10.73234324304706
H           -4.23672606729321        2.89143369527868        9.90683114750291
H           -2.79406445071870        3.81975911199822       10.32074349614564
H           -4.25253113365069        3.98411997962230       11.30395296182373
C            0.51455356157600        1.79953771938140       11.47251862270044
C            2.85607525025806        1.00627085008814       13.42989023639484
H            1.86656811948065        0.67396361863216       13.74964581618530
H            3.29073517235395        0.23138766971915       12.79579523751261
C            3.74014275695963        1.25866076037766       14.64713858173802
H            4.73685022181041        1.55490340203339       14.31576876692838
H            3.82979146723716        0.33812500091225       15.22428244760230
C            3.14161788047705        2.36275354214511       15.51196419950065
H            2.16058865832459        2.05203347059448       15.87584899215101
H            3.78191259120369        2.55292813395939       16.37347592913178
C            2.99760754000118        3.64636999806954       14.70064089844401
H            2.55212274890870        4.43715665060538       15.30797260794661
H            3.97804341241649        3.98671445043209       14.36356841515393
C            5.50742046886320        8.43805461618335       10.22564137280125
H            5.09816308275290        9.19860935974101        9.56700046941855
H            6.51376974832647        8.69973230226160       10.54188342755240
C            5.41377481233204        7.03342396532650        9.67878596890079
H            6.11439305846343        6.89187823585652        8.86053145358483
H            4.40642023973375        6.83624531912886        9.31885008741407
H            5.63814722766186        6.31970488668828       10.46880789110373
I            0.34624664955867        5.20709920753289        9.20568368870800
