88

C           12.82486960054041        1.48670694787840       12.15710475928200
H           13.59684009054654        2.11205390966878       11.70807235069280
H           12.01753190410972        1.37672606632513       11.42994366939176
C           12.28936536031176        2.12341593019601       13.41124068101063
C           10.91848136148988        2.09931634008742       13.64059525231251
H           10.26487954948599        1.66127909303506       12.90053519411023
C           10.36691954945122        2.63661046026182       14.78642604369399
H            9.30039090909118        2.60761714797529       14.94430653500901
C           11.20517305431300        3.19145867635569       15.73751239694533
H           10.79665355502831        3.59059617217320       16.65364343126317
C           12.56776554636922        3.24017375299275       15.52473810907222
H           13.19170840942344        3.65689332758063       16.29751710755454
C           13.13678891345938        2.72583351845653       14.35880248423081
C           15.31739014408543        3.72848129571305       14.90208409830897
H           14.80613076657281        4.68902442696534       15.04151533899738
H           16.23392800546761        3.92208837587009       14.33578206069730
C           15.72097724483903        3.18030624365550       16.24588333862260
C           15.87564202492680        3.96193605641234       17.37828096378364
H           15.68663529250885        5.02276729640992       17.33678925760087
C           16.24884693342448        3.35635596844777       18.57072493257872
H           16.34488615236426        3.94504084728585       19.46982885946568
C           16.50522586375537        1.99300279973936       18.60213164227883
H           16.80357761739942        1.51198161006035       19.52008231584567
C           16.36758358619144        1.24870151082240       17.44081052334218
C           16.65146086059576       -0.22478327752014       17.35752724693497
H           17.16630372249216       -0.55011351394352       18.26980250258035
H           15.69032842351496       -0.74897349884455       17.32336147067961
C           18.78224758212768       -0.42256481388706       16.15417176136775
C           19.41717040693714        0.45170848902931       17.03951425272442
H           18.83962458332017        0.99220702622599       17.76971645342375
C           20.78411984372129        0.64378147014386       17.00530333175214
H           21.24335286291345        1.32074094795993       17.70911453687415
C           21.56104202949848       -0.02904616596639       16.07741882715868
H           22.62943545340946        0.11249436024254       16.05033377848395
C           20.94620715270686       -0.88797128193515       15.18779553982999
H           21.55300177085233       -1.41720888743306       14.46869322393986
C           19.57011672261271       -1.09849511187116       15.20496977933654
C           18.99645958809788       -2.07818481955989       14.21502068383271
H           18.31194511944658       -2.77567829389343       14.70157844972404
H           19.83150528487177       -2.65027996936671       13.80663143147894
C           18.35347636170021       -2.34298936436333       11.85292179598917
H           17.82827052352662       -1.85453825176770       11.03358126871657
H           19.39875092389308       -2.49294437901332       11.57909956769732
C           17.66309515101041       -3.68309077463613       12.11493268135523
H           17.51984086495092       -4.19983188509810       11.15864278074004
H           18.25386950937813       -4.34051304955975       12.76534429497177
O           16.41605418294280       -3.38735939951156       12.71906026056726
C           15.45552692571788       -4.41517859889796       12.59725559551074
H           15.81796961601786       -5.34325984057977       13.05711215530247
H           15.23758426193552       -4.60294209939276       11.53840873922806
C           14.18777028460485       -3.96228680006636       13.30585748169543
H           13.45898898611074       -4.78297711213133       13.32633707937686
H           14.41791160980437       -3.67691832744139       14.34103026027148
O           13.66897263276647       -2.84917221325245       12.60893517019101
C           12.70349652698880       -2.13201980775826       13.34542002627728
H           13.09940710667043       -1.90351897696958       14.34099082884531
H           11.79917600420127       -2.74008181165727       13.48826084212526
C           12.28969508256403       -0.84958147625014       12.63039195987209
H           11.84490066799292       -1.08970523450405       11.66314238669039
H           11.55030707346984       -0.37343816638732       13.27858238752938
C           14.24761484423445       -0.33969499129147       11.27163829793738
H           13.63455193763613       -0.30467432510032       10.36852098987107
H           14.51543589729162       -1.37799230730183       11.48209470423556
C           15.52301472169826        0.45429050999521       11.02102269231502
H           15.93695720792853        0.08861313484632       10.07065275325686
H           15.34809757107567        1.53000918178795       10.89912322150803
C           17.77423109077094        0.59254655926363       11.73778093102807
H           17.90471776576779        1.67987985934718       11.78865301718502
H           18.01059337677637        0.28106318222280       10.71269841850781
C           18.70617714313143       -0.07187199301201       12.75369327185044
H           19.73123525896394       -0.08207834079708       12.38056196049952
H           18.67512782062651        0.48622899154871       13.68974204076264
N           14.51089495772913        2.78034075476160       14.16206298673280
N           15.98252348461482        1.86848012704228       16.31725246090057
N           17.39808689030788       -0.55218213312408       16.15376092233013
N           18.26778059981151       -1.46054270289022       13.04678805872094
N           13.39933730794331        0.12098842525882       12.40583896871511
O           16.44552666447332        0.22353428898069       12.06572428764246
H           15.72369335836184        1.28273846524821       15.50718859986243
H           17.25527276819209       -1.39787458952739       13.25649102643761
H           17.05019342482371       -1.38576156609559       15.70327002081275
H           13.94807727131263        0.15130849476047       13.29144808795207
H           14.81147284612964        2.64292637425391       13.21086700714346
Cl          13.25402379253876       -0.12288781687913       16.25800973913266
O           13.44743432560024        0.91363600135227       17.20200779501458
O           13.60522360468777       -1.38156846076337       16.82618109006686
O           14.17554365911595        0.09984073628012       15.15816520619378
O           11.94089196325178       -0.14299217546590       15.74276406643903
