395

O            3.03858849329738        4.30705678983267       11.55007363994699
O            9.02040651321317        5.04942771096522       10.91381493815359
O            4.95680512106544        4.50457802216055        6.46176923114816
O           -0.71070130251789        2.55676629263003        7.12024716223079
O            0.97136922494178        7.62322877069139        4.38219334665735
O            6.53059877405806        9.07859646221073        2.68323504823262
N            4.73821749665163        5.83609451118454       11.71661688734563
N            4.66871806572894        4.51831185999281        9.94102280745935
N            7.10810488359558        6.21538278073876       11.41446002178342
N            7.07276125213337        4.80140990769847        9.70631397250600
N            3.26718315561098        4.21953139387568        7.98541632758068
N            2.77526018602740        5.08902565360326        6.01200186879899
N            0.97135260936532        3.55971426684404        8.32533907752669
N            0.49026314722064        4.33832997663821        6.30675816045424
N            3.17480851059092        7.11742516949006        4.76692055884624
N            2.57528847394256        9.24422374609521        4.66977369091316
N            5.44104611571717        7.70115479218335        4.16658904473208
N            4.83599098135193        9.83220673065749        4.03899304742554
C            4.04160814404050        4.84281147994955       11.10430717413398
C            7.85317505412147        5.30961157054891       10.70334400763055
C            5.79094849798732        6.37455970640527       10.87288421853695
H            5.57581013307711        7.42486711096520       10.63687642234214
C            5.77239991969433        5.41473874813303        9.65486175230469
H            5.60772061560622        5.90190260164970        8.68503146772469
C            3.78892692495513        4.61193608537171        6.78760748622662
C            0.16441646747086        3.39397234844509        7.23580260442188
C            1.89296072633662        4.64609039863475        8.15362125301311
H            1.81274352668762        5.37383138648706        8.97238981699692
C            1.53907815767071        5.21394629091613        6.75493355007386
H            1.20319083251503        6.26018009736551        6.76249779026821
C            2.12553683284086        7.96080946400934        4.59763669486474
C            5.68183960312959        8.88884138044689        3.53433868957704
C            4.39059196189409        7.81334667562339        5.13863255034607
H            4.72432203534396        7.47991405862073        6.12970804694337
C            3.97162171834071        9.30673518064596        5.05735819628164
H            4.07390334045193        9.86957983948620        5.99362690885055
C            7.72062278243648        7.11384498364284       12.37207037712845
H            8.59405940648575        7.58829885557359       11.91557948758476
C            8.17192874952962        6.35156826768015       13.63549807672908
H            6.99613995730826        7.88797110537531       12.62681518781248
C            3.01739719545344        5.68763782756074        4.72489676323152
H            3.93186889420700        5.23481538279957        4.32844008555946
H            2.16636371735174        5.49117564650185        4.07025025652422
C            4.08781784997512        3.60368311409859        8.99140912453404
H            3.48422724354151        2.89995149001721        9.56641188091133
H            4.88852210117100        3.09124395697535        8.45570146021324
C            4.42154033674371        6.26238209213242       13.05337121349702
H            5.34541081825390        6.52235938040777       13.57049251471281
H            3.92536248797022        5.41366365507184       13.52930671579512
C            7.51165927471897        3.74045273139868        8.82811839495458
H            6.96777961835109        3.82528575984463        7.88622309448164
C            7.32137742702071        2.35806119449976        9.46660207616657
H            8.58222905671529        3.88042525713337        8.66140601253746
C            0.72500457030331        2.88387918724024        9.58170072507546
H           -0.33090887245626        2.98861841756168        9.84705332038979
H            1.32961210101779        3.36724919174504       10.35006186516693
C            1.06204486469692        1.38254744403355        9.48187256893921
C           -0.19311482137446        4.43442833671903        5.03768470216754
C            0.28859904412696        3.34527699832176        4.07171255839395
H           -0.02556569396827        5.42695281698717        4.61706630154898
H           -1.26372792299431        4.29750030536850        5.20867656698343
C            6.37007972654588        6.59484871558558        4.04756608057822
C            6.16514574468027        5.77603341171238        2.76660058442728
H            6.24354390664087        5.93489019587828        4.90761062252425
H            7.37850617197064        7.01433462107462        4.04225894696635
C            4.89329846673959       11.21717266785003        3.63253944159388
H            5.93900498008450       11.53353451872861        3.61342314538719
H            4.35404559408271       11.82327033801519        4.36218692303062
C            4.29034753787473       11.41218056680037        2.23583600736710
O            2.91094725105804       12.39202804392683        6.17605669128860
O           -3.05716693535572       11.45395179461894        6.61118950340528
O            1.03399677168934       11.90222953321241       11.23818434277744
O            6.38960214602546       14.49459015745101       10.62730373258933
O            5.17444710224543        9.03440175217887       13.17022081290889
O           -0.30120261338585        7.93679519956273       15.41124122001800
N            1.23877316324994       10.84416180775458        5.90162772620100
N            1.25250971623549       12.08272348607001        7.73586929710286
N           -1.10681139929080       10.32306479172555        6.16789285753173
N           -1.14870488284260       11.75050615472833        7.86256324045605
N            2.66642853152032       12.32229490485442        9.69265636631781
N            3.26794002069703       11.53444720947606       11.66986286021540
N            4.84918082793541       13.31469382630755        9.39410726781799
N            5.46251566697892       12.52946765740688       11.37414841379880
N            2.94229180579578        9.52938182248473       12.98933548088905
N            3.55139192497407        7.40538738268013       13.13270083101537
N            0.66314836423627        9.04177631603191       13.64554291500400
N            1.39193423919156        7.01250814638041       14.15321523222952
C            1.91106078391094       11.81767358701201        6.57331494624960
C           -1.88957186093168       11.21757236788773        6.84855273710461
C            0.21005993064084       10.22705538188262        6.72209531636871
H            0.47793637841155        9.18590181495974        6.94919779052366
C            0.16178517999513       11.16009294630589        7.95809630114151
H            0.29325111622019       10.65020050486934        8.92283709910669
C            2.20799380076345       11.90359599585583       10.90368946598942
C            5.63693636941281       13.54972141838280       10.48519190257721
C            4.08911724482931       12.10291910069082        9.52956713354619
H            4.26806521280299       11.42107793614240        8.68850525156482
C            4.51083393185940       11.55380846442827       10.91893679376726
H            4.95127915390645       10.54877841925800       10.90778975774577
C            4.00685686556638        8.69167619970858       13.08628411870929
C            0.51104519966692        7.99279853199990       14.50707655032315
C            1.70998247753655        8.81433276469816       12.69889917633422
H            1.37778556791939        9.03052074506557       11.67441096691687
C            2.11942628383593        7.34104385556856       12.95144098377103
H            1.87224561742463        6.64483748717967       12.13817888295978
C           -1.65897329512284        9.40886512733763        5.19092837313948
H           -2.52602748156582        8.89760373015411        5.61984932568066
C           -2.11085510157545       10.16130001665509        3.92438210900448
H           -0.89764119881529        8.66675894488002        4.94912238786012
C            3.10569213403847       10.95895391548027       12.98183701775617
H            2.22860102928248       11.42615688186990       13.43727404923432
H            3.99648892768895       11.16656366538412       13.57594640896724
C            1.79138479574486       12.95626527048782        8.74470317353533
H            2.33995228261994       13.73959888146901        8.22353520451568
H            0.96575928631861       13.36939990844951        9.32705939672223
C            1.68025346084521       10.37093002267969        4.61691207313785
H            0.81140803634584       10.05260119164263        4.03745980168245
H            2.18561214039280       11.21058670498869        4.13553505228725
C           -1.63722019721101       12.81641048971729        8.70469184765872
H           -1.18941411360527       12.70948871955117        9.69400766698452
C           -1.34882225403021       14.20517310284430        8.12122353155270
H           -2.72181291448580       12.69885385067990        8.76519112864885
C            4.99536693618979       14.06822927167165        8.16444815517647
H            6.05456696420155       14.11319575122481        7.89732613057359
H            4.45908317106700       13.53830874120670        7.37656524804258
C            4.45920240809367       15.50789701706258        8.32288981643979
C            6.15321166654025       12.49259267886159       12.64175918392142
C            5.53391065127022       13.48420849824892       13.63560090261902
H            6.10814127999415       11.47794520283189       13.04001105071249
H            7.19828908597449       12.76070520417919       12.47113258443465
C           -0.20654176218890       10.19727687244267       13.69244311343074
C            0.08421141978361       11.09379361855855       14.91473521770908
H           -0.06192199880537       10.75798156584377       12.76795678653672
H           -1.23508194160942        9.83164593220306       13.74277984170945
C            1.49450727925129        5.77087196143939       14.88603604427824
H            0.52174189377141        5.61486899824206       15.35991687466879
H            1.69809190945468        4.96385504599873       14.17903357906944
C            2.56461652536549        5.78192321037031       15.99681107407378
H            7.13625288095418        5.46723253364853        2.36135582581196
H            5.65205708253688        6.38728741469378        2.01360570222597
O            5.40222699996733        4.62460736439310        3.08094499746318
C            5.03390516964623        3.84852674538764        1.95959847386553
H            5.90448116797191        3.65390055423727        1.32211837154919
H            4.27227412070839        4.36838850160626        1.36211492582025
C            4.45716904376569        2.53436046402378        2.48103600075950
H            5.26217828672618        1.90198920231064        2.87724790494713
O            3.78472794639479        1.88291427061095        1.42540508674167
H            3.76255412359132        2.75288552096146        3.30643852494250
C            3.27571747093150        0.61752133409310        1.80114064218704
H            4.09638917345272       -0.05706212565803        2.07844404289338
C            2.47995249472851        0.04631312491034        0.63115297287709
H            2.60527401401085        0.71482212207197        2.66671080295062
H            3.15715110080709       -0.31276561869819       -0.15575812280169
H            1.84139634708027        0.83514260712264        0.21185246214249
O            1.68487612542027       -1.01570701592043        1.11769879494063
C            0.74506056572770       -1.47085679505750        0.16360733221226
H            1.25254109435066       -1.87262368254125       -0.71955490065240
H            0.08365572197100       -0.65260737728244       -0.13894638856107
H            0.17526757364029       -2.25617324097774        0.65327682014964
H            4.99131511246359       11.03552870018318        1.47830769761510
O            4.04621287183326       12.78885353625040        2.04420875733154
H            3.35239195646758       10.84284738316173        2.14539666139060
C            3.55139321112607       13.08264446718307        0.75390911968849
H            4.24630388898642       12.72304900094086       -0.01638608649652
C            3.38429526353999       14.59434346885381        0.63628354760614
H            2.57885582953776       12.59612265012056        0.59333105446602
H            4.36663796800999       15.08265223128117        0.68920126328679
H            2.77556948321645       14.95653050293751        1.47594102076919
O            2.75507721186169       14.86977053695885       -0.59581573319752
C            2.55095943202431       16.25384160497396       -0.81847096554181
H            3.51028899169293       16.78827219362338       -0.81464533732500
H            1.91067786505810       16.68503635265986       -0.03743696585351
C            1.86875158234806       16.41214903593034       -2.17336007156403
H            2.55321801504959       16.10189399284847       -2.97555571746495
O            1.49741653155597       17.76291596374964       -2.33334246864640
H            0.98383000793049       15.76081173986192       -2.20547781226386
C            0.85353351900485       18.01217086599238       -3.56774818075634
H            1.51547025680441       17.77588975993011       -4.40734237994482
H            0.61243906960758       19.07164136532218       -3.57221323795884
H           -0.06293830928299       17.41959470237570       -3.65672460525655
O            4.18102263509477       16.14868266590058        7.09751984086650
H            5.22045010122440       16.12110648407664        8.80865205637572
H            3.56327204053248       15.49590417275937        8.95918115235014
C            2.96666039075546       15.75552147132746        6.48531843240935
H            2.13083688313833       15.88563815906607        7.18826056471921
H            2.99620558816201       14.70920526994723        6.15680311689475
C            2.73257753077856       16.63051358224664        5.25830588239397
H            2.57304582668291       17.67368856955103        5.55999060934272
O            1.59464250334684       16.12868875168548        4.58362182044931
H            3.61684508814780       16.58266823926154        4.60905761514162
C            1.27387732083056       16.87529871070119        3.42694840871125
H            0.89927246528985       17.86991571583672        3.70308326813295
C            0.20664179707961       16.11848676229754        2.64206085473887
H            2.16426027163727       17.00256364945614        2.79517227756632
H           -0.72254735175121       16.07690886469903        3.22479408742075
H            0.55269320623907       15.08981895110076        2.46333347982889
O            0.00340936221488       16.79262247141990        1.41823391715678
C           -0.85522145418010       16.09906963555761        0.53294181079892
H           -1.85604939900378       15.98584203603081        0.96021787987577
H           -0.44912191788455       15.11046997223286        0.29352566701066
H           -0.90567454407530       16.70610722232027       -0.36770381413540
H            5.84738691705959       14.50544987684818       13.37777170940521
O            5.95918291248661       13.15122832190107       14.93986891341475
H            4.43616368713121       13.43760619110682       13.57496690604709
C            5.36170577608242       13.97159354060078       15.92307892766342
H            5.59721334849013       15.02785008613646       15.73670365087679
C            5.88702105558065       13.55143475357324       17.29233134051343
H            4.26932418165693       13.85047541404186       15.90490161550415
H            6.94558482352477       13.82353771588520       17.39143680501399
H            5.79790986258378       12.46001214329706       17.39026870691035
O            5.11114270066590       14.20233407575804       18.27623752609091
C            5.56555759913829       13.95748893283244       19.59754358304676
H            6.51891403698266       14.47333329197928       19.77310808416313
H            5.71942997627287       12.88439623343590       19.76267243111594
C            4.50565076581992       14.47920139643650       20.56336093281027
H            4.39369968282723       15.56573352526138       20.43752582937890
O            4.90614854560756       14.17480104368268       21.88099738306176
H            3.53924998146210       14.00539798843301       20.33813683597176
C            3.98447966234585       14.63779304088153       22.84935222852934
H            3.88436977963467       15.72691918559005       22.80155828062127
H            4.38840589145092       14.34520559448304       23.81477350805172
H            3.00077466270528       14.18085369156003       22.69995623664797
H            9.13126323968719        5.86964637715165       13.43719355496393
H            7.43422014076797        5.57349239925915       13.87623304447144
O            8.38504757544331        7.18861797254894       14.75024516911901
C            7.20730023269931        7.55716653911056       15.44416154072707
H            6.68694752822514        6.65823929967033       15.80667455249865
H            6.52371651611689        8.13274697396631       14.80905664825991
C            7.60319945845363        8.41467111419387       16.64123004868643
H            8.36482724859182        7.88979067380409       17.23383733486859
O            6.44286331880697        8.64330728742523       17.41679310706867
H            8.02532277285407        9.36482622416378       16.28970625764870
C            6.68089296474648        9.52530666629305       18.49490427876697
H            7.45337727864386        9.11807742734335       19.16151962355480
C            5.38110033794112        9.71067290901629       19.27122015855760
H            7.02798014820780       10.49924082502546       18.12206218779248
H            5.06278501540350        8.74629643051028       19.69101398463296
H            4.59370021680900       10.06962605383310       18.59208794772436
O            5.62048141994905       10.64357423273497       20.30281923977206
C            4.52351976556729       10.79594694024818       21.18309218922369
H            4.31783767152616        9.86026950545638       21.71244083608497
H            3.62678622888421       11.10422788260809       20.63520462308105
H            4.81056639425571       11.57508702658895       21.88579592620402
H            7.38434504291310        1.57777907008536        8.69572751521308
H            6.34573676178224        2.29462572232979        9.96576251960646
O            8.35119557952845        2.17926672664351       10.41980555185799
C            8.08963668720444        1.19341401701779       11.39244147469633
H            8.00451808579199        0.19973539535647       10.93196408828243
H            7.15300599400535        1.40910701766813       11.92804871052473
C            9.25178147249789        1.22649133923121       12.38008337251942
H           10.16205693819123        0.84861062302965       11.89661307007722
O            8.92346497810358        0.43898832754156       13.50480966810361
H            9.42911806629290        2.27185101045767       12.67049014024780
C            9.97143565382784        0.38961094979790       14.45348006636861
H           10.85958637573237       -0.09169989979331       14.02197704118080
C            9.48785354590898       -0.41494324012186       15.65472751786030
H           10.25053930440970        1.40245590673541       14.77306567076415
H            9.15946642117866       -1.40843982961789       15.31644649950105
H            8.63119303330364        0.09682360365815       16.11516036610272
O           10.54901223395853       -0.52994333087178       16.57484485119625
C           10.19070840594870       -1.25036482845939       17.73894818691267
H            9.88606718629486       -2.27117448419070       17.48676828543849
H            9.37232108646259       -0.75245354788063       18.26910572296036
H           11.07985232731113       -1.27177192334324       18.36290700200134
O           -0.29997990635423        3.56355162152702        2.80920033612781
H           -0.00474966423432        2.36162961898842        4.46663801480985
H            1.38601649752562        3.36855584253186        3.98872327069130
C            0.12677759178704        2.61961717971936        1.84585261504702
H           -0.04156434597199        1.59678587629965        2.20980349022321
H            1.19902649998872        2.74346287855494        1.63905993218788
C           -0.66648348878952        2.84589106118084        0.56301443242261
H           -1.73550563978917        2.68154575603058        0.75433772731968
O           -0.19122731660815        1.94880454198649       -0.41721785324774
H           -0.52938632470403        3.88348598270558        0.23110345218064
C           -0.82793994758493        2.11209447808941       -1.67466167383478
H           -1.86778993358029        1.76356360229777       -1.62351337760042
C           -0.04625372324434        1.30746637420849       -2.70922954967096
H           -0.83323362799572        3.16824933962886       -1.97025143901567
H           -0.18745042419573        0.23044026048702       -2.54137271125604
H            1.02411091415638        1.53578891885980       -2.60056677360115
O           -0.49982304875733        1.66653949643323       -3.99541958315962
C            0.14430135601490        0.93995296116494       -5.02437665819909
H           -0.03984323449942       -0.13380945195955       -4.91680474386433
H            1.22391582993647        1.12194262284014       -5.01296303831845
H           -0.28266491546947        1.29665084672774       -5.95776182831234
H            0.27456386779523        0.88114863920728        8.91542957241971
O            1.10258319557667        0.74061573734924       10.73543055295783
H            2.01535934070051        1.25254930953508        8.95195756212813
C            2.30132718516705        0.93523107539542       11.46487189098191
H            3.16212984526270        0.58223976392550       10.87907109084910
C            2.19773985727696        0.11800710505802       12.74844474532940
H            2.45915622083653        1.99016374419362       11.71978694646451
H            2.02413288973227       -0.93676711589233       12.49597111702355
H            1.34609258821330        0.47690605729669       13.34139370676700
O            3.40404565662835        0.26264451249869       13.47010475144624
C            3.39817632452530       -0.47455159905348       14.67671723131450
H            3.25368952196418       -1.54408472206319       14.47257597745609
H            2.58315874269571       -0.13594182711097       15.33085509273921
C            4.73245003642950       -0.27089347610480       15.38652383741672
H            5.55502336992045       -0.61811423466133       14.74491306753546
O            4.69154991689865       -1.00327249970312       16.59142837770351
H            4.88462755435474        0.79921406602800       15.58652161109414
C            5.89536465912874       -0.93099177595270       17.32829432479673
H            6.72658280983852       -1.35486415007528       16.75533886665880
H            5.72930912625438       -1.51296492640749       18.23085301677528
H            6.13062763409258        0.10614283931874       17.59017208735532
H            3.55422573306691        6.01961959320492       15.59593554165587
H            2.58200767988706        4.78709824391189       16.44855030468447
O            2.25764840889260        6.66937203423565       17.05652016822161
C            2.78606087501293        7.97479132382765       16.92539347618407
H            2.75071549909242        8.32632231905052       15.88860771282654
H            3.83678451084046        7.99658031961011       17.25090665602770
C            1.93688539129503        8.91492030529803       17.77673841957538
H            0.87998997825894        8.76613594897747       17.51202326682578
O            2.34222531454826       10.24080264588697       17.49971771540601
H            2.06732095196364        8.68355312798723       18.84153900673402
C            1.60759011065868       11.21454837671704       18.21707965495570
H            0.53124999712663       11.10041899034716       18.03239759468166
C            2.07266770548908       12.58510620817081       17.73549323254510
H            1.78188688904606       11.11010821870925       19.29718919570794
H            1.91481817614933       12.65328219424334       16.64997311097381
H            3.14472247401659       12.70722625442155       17.93814659763344
O            1.33596164561038       13.58624853033798       18.40551257341800
C            1.67040545407185       14.88719437773416       17.95560770805406
H            1.40863936200532       15.00914089223166       16.89864483367515
H            2.74126143529525       15.07710828470362       18.08076329888169
H            1.08949250971822       15.57397323057423       18.56539108973136
O            0.71065642063178       12.32653892909320       14.59990446190593
H            0.79546179423988       10.58261505437136       15.56647088876446
H           -0.83604417893110       11.27200722849558       15.47594142875096
C           -0.11616848699038       13.30884294878510       14.00825704829347
H           -0.58854030750502       12.93214589094161       13.09536097441798
H            0.55967281685971       14.12129162477598       13.73265167802858
C           -1.17775734785588       13.87306314226391       14.96052930801950
H           -2.02930033062424       13.18567634330366       15.06091020387939
O           -1.61825158520744       15.09887127131210       14.41534378357544
H           -0.73597408556342       14.03010707105036       15.95607423968020
C           -2.63490606614978       15.71145580921507       15.18370110877541
H           -3.50431846891929       15.04614462052017       15.27542327169043
C           -3.05086695034833       16.99753325597931       14.47821114700097
H           -2.27004614979448       15.94356044551789       16.19327121518057
H           -3.40829913820795       16.75862699547562       13.46655112162285
H           -2.18129702177771       17.66352205728937       14.38769386621323
O           -4.07073963405837       17.61007090205010       15.23534721043560
C           -4.53765900211791       18.81332705452282       14.65657983103295
H           -4.96019205020987       18.62966000226990       13.66332984598387
H           -3.72754179714384       19.54487628549816       14.57201373010727
H           -5.30850878456839       19.18812360591881       15.32430569847587
O           -2.44728310425680        9.29885489115169        2.86247403846364
H           -1.32821330738321       10.86742986866327        3.61492508055037
H           -3.01896294851651       10.72246169991222        4.15507616381464
C           -1.34178595864961        8.81077896449579        2.12348768082362
H           -0.64376502233378        8.24774356729725        2.75375197777734
H           -0.80003347814398        9.64753022869561        1.65900119089397
C           -1.88408752367970        7.90024734850393        1.02704957283006
H           -2.32197520265118        6.99956781859229        1.47720456004485
O           -0.81673929839152        7.55658048713611        0.16805335497845
H           -2.66930986913224        8.43224500999965        0.47256321708533
C           -1.21938285934683        6.69662503277720       -0.87833736774818
H           -1.67011281895256        5.78144718064671       -0.46927427149362
C            0.01248049742455        6.32978424996546       -1.70013168771283
H           -1.96461514300307        7.18867412271501       -1.51769240380301
H            0.79881529890164        5.96070477260079       -1.02491136264677
H            0.39493327188713        7.21982436545537       -2.21762539479245
O           -0.35710856604345        5.33421760985913       -2.62732588234470
C            0.69429105337751        4.96648338574770       -3.50152718554891
H            1.55880380261528        4.60234799580891       -2.93657855995049
H            0.99961555716358        5.81627617317561       -4.11956146626658
H            0.29540852978670        4.16941531633001       -4.12495632086901
O           -2.24223532891645       14.44061381536981        7.05143064121741
H           -0.31833497703292       14.26552977049588        7.74695092399914
H           -1.49321175205725       14.96653314201852        8.90124038979431
C           -1.93572406544845       15.61141072056336        6.32539103034681
H           -0.93969630318584       15.53497052171143        5.86251879963776
H           -1.94287459707035       16.48901041820996        6.98650388768944
C           -2.99314035448418       15.77883497550620        5.23957435866435
H           -3.03542315770779       14.86222460960813        4.63471865296286
O           -2.63857907068141       16.89177665809458        4.44687318932482
H           -3.97821049008201       15.92836273788018        5.70073498777067
C           -3.54754648953952       17.13531861780530        3.39150275632605
H           -3.62397618905197       16.25364494308903        2.73882949421733
C           -3.02400582484915       18.31394592149626        2.57466135310119
H           -4.54820728161488       17.35182644425591        3.78731064542659
H           -1.94363539736045       18.18881606404737        2.41748817487348
H           -3.18437720131941       19.25502548477871        3.11831295294265
O           -3.70215246697291       18.33410971967903        1.33757759052202
C           -3.21822654726387       19.33956040079671        0.46759444888625
H           -2.15147428261147       19.19687116217593        0.26605504017251
H           -3.37221999778441       20.33388486762282        0.89902800295542
H           -3.78948639186477       19.24112107885582       -0.45138560078808
F            3.53777262566118        7.28668766521176        8.27804201733287
F            3.49191607171105        8.59549023574381       10.11857098587016
F            2.91118562557064        9.44778038602707        8.10827026686238
B            2.87196923077131        8.32242986717968        8.91245176289132
F            1.55489589760013        7.95925862706877        9.13742034750449
