391

O            2.81496934790300        4.13881732127311       11.83178344850598
O            8.67405611196872        5.25963109207300       10.47203404692979
O            4.31935943697163        4.03525384795451        6.47627383201518
O           -1.49827996414486        3.17907457209383        7.62038190783396
O            0.77559492431020        7.64489691527345        4.23877136240301
O            6.52779725935777        8.44506539916295        2.87143732175034
N            4.47716804159674        5.72243381782360       11.83922930717947
N            4.23290066161186        4.43490440792368       10.05106573128671
N            6.76189360437957        6.28879262513251       11.22396120646804
N            6.59466663160963        4.77441079813441        9.61320951120686
N            2.76422809492671        4.20574129985867        8.15490224189783
N            2.27024559600131        5.02635886899155        6.15871794641095
N            0.41658729098400        3.92501283654573        8.65736701544634
N           -0.08236682650823        4.69702555566972        6.63862915797753
N            2.87869930902603        6.90218229802071        4.77724384487896
N            2.51772952059016        9.08449534585247        4.64600776638075
N            5.23511867678596        7.23592319263022        4.33929799148281
N            4.86333928457221        9.40928739860608        4.12928714482079
C            3.74431357918551        4.71145555777446       11.29147118514796
C            7.47169154051173        5.41720524249904       10.44365626503183
C            5.37497065525075        6.32826416066609       10.87028355968288
H            5.05292645338934        7.35471468082093       10.64722602693988
C            5.27891976792565        5.35537025033104        9.66683783671195
H            5.02357108757825        5.83650970600641        8.71269747467661
C            3.23133422903589        4.39130960427436        6.88793641064040
C           -0.49120382812431        3.85620655945382        7.63500472098261
C            1.48151942121903        4.84490713224212        8.37242916469931
H            1.56564999155964        5.61352789165141        9.15159514094367
C            1.12783935358442        5.39744380008013        6.96710701787176
H            0.97439608418121        6.48394425854675        6.93000039797042
C            1.93861717358965        7.85667318399898        4.53076995094558
C            5.62975936171963        8.36934898503882        3.68510243888570
C            4.13392486603805        7.47256138179117        5.22757944995205
H            4.36512035500253        7.12884934647975        6.24394837775511
C            3.88976170036791        8.99980053961377        5.10319999148155
H            4.01160014537523        9.56001409058320        6.03906984634553
C            7.40010920582165        7.12997512765727       12.21329927293915
H            8.22110963853513        7.68164382339863       11.74406834724964
C            7.97638805816669        6.27160309602726       13.35711814801526
H            6.66746952544943        7.84292910981868       12.59098578203321
C            2.53148356864681        5.50580881778965        4.82626409210228
H            3.35662280975833        4.90356314540637        4.44037308555466
H            1.63871627444089        5.39048155842225        4.20769237425719
C            3.55814525618151        3.53713916360435        9.14854227052576
H            2.92701279359809        2.89468784725401        9.76613421398389
H            4.29404927010567        2.94932680892336        8.59461659272982
C            4.13269100089339        6.26366048457418       13.12640129237504
H            5.03624915075346        6.54937124674084       13.66864552785877
H            3.59929819403620        5.46605825386196       13.64956551046294
C            7.02825511186955        3.82332849972355        8.61334883082916
H            6.40195956640011        3.94107099181065        7.72603025618340
C            6.97476176595744        2.35360363285332        9.08009281740924
H            8.06701573736180        4.05971593526682        8.36679002550028
C            0.14742499062494        3.36819031055391        9.96711369736914
H           -0.82605336973987        3.72126419877771       10.32418208316192
H            0.92022634118021        3.71538217057699       10.65307699242473
C            0.11874517486611        1.82773042147716        9.92424554000536
C           -0.84113838055546        4.87217195765364        5.42217126220478
C           -0.69030081870013        3.65952548837499        4.49553101478586
H           -0.50535680845522        5.77835292008862        4.91661613796129
H           -1.89806358966387        4.98284792917142        5.67995481516177
C            5.92131338312544        5.97381068592420        4.18052907960683
C            5.70284195142103        5.39015765906550        2.77932661931009
H            5.56191125004281        5.27087048532554        4.93314431795211
H            6.99391125129115        6.12928883614562        4.32905603372612
C            5.06993056438839       10.76459001266477        3.67333240153167
H            6.13974526643468       10.98864843604628        3.70813158535137
H            4.54504224838924       11.45188672529101        4.33781962566428
C            4.58161735484505       10.94325384276961        2.23041066507385
O            3.11388806803251       12.38720582803485        5.91459294595036
O           -2.79834797695190       11.59364569790622        7.06979372542928
O            1.46749326543299       12.54437705795849       11.20732416409031
O            7.29783694289857       13.38177919499331       10.25160130173319
O            4.96592716525668        8.94286007044924       13.58081033636660
O           -1.02443091012577        7.98347414369708       14.27507122467794
N            1.41253214733230       10.84678138291549        5.86275007120711
N            1.63047913921499       12.13875102614450        7.64882561741433
N           -0.92669002750602       10.46523011132103        6.36539342484038
N           -0.74531429022753       11.85666527079560        8.08247809048775
N            3.06598314631935       12.37513256349377        9.57152916611487
N            3.48480118035934       11.50358914546556       11.56411406885416
N            5.43091981298596       12.62959237304520        9.13728916086655
N            5.85178304094874       11.85098690299705       11.16962388766544
N            2.86841168126797        9.61530034257913       12.92975079329987
N            3.30897621451618        7.44411435466497       13.06014209522798
N            0.46959049304450        9.21581536338326       13.04230385322605
N            0.94447123355550        7.09466047684652       13.47820935809711
C            2.15231742564490       11.84155351513466        6.42522545671958
C           -1.61592382250915       11.34714359853891        7.15904137558912
C            0.43321533053160       10.30202359868487        6.78590915909843
H            0.66169015324311        9.24904913210046        6.99925678284485
C            0.55264721349361       11.24311585917830        8.01209759180611
H            0.79270560387007       10.73281361832622        8.95511475943862
C            2.56031101345847       12.17386381808354       10.81977225188284
C            6.29504036953628       12.70038366719205       10.19456741994380
C            4.34685503980878       11.72192554286999        9.38127593655694
H            4.27479614646841       10.96503065152651        8.58985348352043
C            4.65631263124104       11.15016529635805       10.79014399478778
H            4.81378801289118       10.06369787250561       10.81563879711742
C            3.83050209934093        8.69398585439137       13.22046378925637
C            0.02375942437300        8.08704754760849       13.67139357541739
C            1.69467782944205        8.99883969411144       12.33461547677994
H            1.59990152865812        9.30476002770037       11.28377398539263
C            1.96302588657340        7.48483950695427       12.53773941228984
H            1.89596043144128        6.88553000841425       11.61901693065245
C           -1.60349322888624        9.61156404399099        5.41232582372090
H           -2.45693923033826        9.12732716790574        5.89842702505867
C           -2.12740344288066       10.43269751251693        4.21785600882598
H           -0.90619516746963        8.84359226911014        5.07727696675269
C            3.18261517564351       11.02070119620969       12.88681092130244
H            2.32975688596585       11.60547505361787       13.23895864755662
H            4.04486880165901       11.15756426515186       13.54354510708120
C            2.29487939616287       13.03897729966747        8.55501481085580
H            2.94477607662559       13.66691043689667        7.94263278091482
H            1.55463678170328       13.64250813614018        9.08502279668848
C            1.74337846738130       10.29742075801510        4.57539494054642
H            0.82828012157046       10.04763183880023        4.03412947603007
H            2.30951704888924       11.06865186391441        4.04813599163859
C           -1.13618301086818       12.82421357378533        9.08152788985392
H           -0.48279861141363       12.71219542175369        9.94805087854139
C           -1.08418790189436       14.26459364767025        8.55616521787814
H           -2.17186698186171       12.61413329584531        9.36100759445074
C            5.70929665366232       13.26104186485930        7.86471328593343
H            6.71030913850169       12.97268744247175        7.52804380757467
H            4.97953950417945       12.90668997660922        7.13623730465288
C            5.65938046871447       14.79740667336164        7.98567881881636
C            6.57686365347801       11.65908953190743       12.40430889898551
C            6.41401382419484       12.86439153341289       13.33845051860392
H            6.22045469990139       10.75309939739106       12.89527692257197
H            7.63943982474362       11.54171881333626       12.17392559750607
C           -0.25234895383316       10.46649374249430       13.12378749298133
C           -0.22152229043346       10.99900814426307       14.56949387595439
H            0.19532160709164       11.18737838727051       12.43904037144286
H           -1.29071392661335       10.28798593700571       12.82572772073567
C            0.73181146041109        5.74193363875523       13.94598467377996
H           -0.34843397455495        5.58428961193902       14.00904321383712
H            1.16600640083211        5.05097571137663       13.22047665787985
C            1.33477265370775        5.45388275054133       15.33605481724605
H            6.23754186330080        6.00447858825091        2.04150692148267
H            4.63140290913239        5.40589576589289        2.52285709062598
O            6.18926024187534        4.06635992587580        2.77073015532307
C            6.12051172139734        3.46418213109952        1.49748762461188
H            6.69171425665334        4.04749934241211        0.76098270603378
H            5.07822278000521        3.40297263318340        1.15117851974231
C            6.70558405949045        2.05902097082980        1.60130221349202
H            7.75094402708827        2.12244216004553        1.93480916382638
O            6.62190821138961        1.44900342839946        0.33145066766993
H            6.14240138926647        1.48264331894073        2.34911406223280
C            7.16435110762827        0.14558559495134        0.31147477081366
H            8.22694573159623        0.16264677838611        0.59318509908352
C            7.02064722238579       -0.40893897055883       -1.10237462876257
H            6.63378896596813       -0.50707702033233        1.01949465283005
H            7.54453472121494        0.25282290582591       -1.80791191026195
H            5.95642787083715       -0.43062451214337       -1.38007422126244
O            7.57091617921885       -1.70605037753464       -1.13330492360857
C            7.49365227219226       -2.30307303546041       -2.40866016519642
H            8.04377079671415       -1.71592407120668       -3.15349888903245
H            6.45189758054412       -2.40329668735447       -2.73546242070455
H            7.94430537651775       -3.28852407134636       -2.31291436716854
H            5.22545796363232       10.35969866844600        1.55650442423515
O            4.63583968431885       12.31355409653608        1.90165514413211
H            3.55159418536502       10.56641666229929        2.12688190302872
C            4.22251486598548       12.57276184951476        0.57821745880190
H            4.82322399119736       11.99155810507554       -0.13609970538696
C            4.39246818210718       14.06398736697820        0.30317956500428
H            3.16649073578552       12.29657256261520        0.43989990348272
H            5.45934617151299       14.32645793553751        0.33702099815439
H            3.87276490822839       14.63528847646259        1.08491863065624
O            3.84882758333903       14.34493469117638       -0.96748445821175
C            4.05902841396234       15.68325727013234       -1.37664997480293
H            5.13249694654391       15.88026916688244       -1.51110611384377
H            3.67271509086358       16.38985504420766       -0.63041880003988
C            3.33347204329372       15.88650722533340       -2.70313610763019
H            3.71290888315540       15.16351898132810       -3.44103743812783
O            3.55400645033876       17.20708996521135       -3.14221510514209
H            2.25863790441994       15.69818661902303       -2.56335296431042
C            2.91016142257828       17.49186077902279       -4.36369456340407
H            3.27200480206605       16.83550285670346       -5.16418221771619
H            3.14921389209465       18.52600282552936       -4.60227125244967
H            1.82342410815599       17.37469209277565       -4.27486333664333
O            5.75680174720085       15.45726342260802        6.74597993409360
H            6.52173055273836       15.12843742748458        8.56942704244012
H            4.74182140671874       15.09754780882277        8.51263064382229
C            4.54703590206854       15.52180553822297        6.01335683722670
H            3.77572258758976       16.04192805581652        6.60165834514359
H            4.17371296779282       14.52613561118865        5.74810419370147
C            4.81503939944264       16.31658082720096        4.73892087615946
H            5.29275343220454       17.27202408029042        5.00118668715657
O            3.58278310703145       16.54044332229393        4.08751507552376
H            5.49947183852121       15.75347108944621        4.08930990778491
C            3.72532023452215       17.26268252888346        2.88422801249484
H            4.12132641171856       18.26990725670193        3.07949414097253
C            2.35653738403727       17.36084034090842        2.21650711048276
H            4.42233389933804       16.75023423523446        2.20533670842184
H            1.68892911725416       17.99133121888293        2.82145207274132
H            1.91292560498435       16.35531099708585        2.15792966977533
O            2.52880879858867       17.90747770342954        0.92901977251824
C            1.31411886235698       18.07450887299754        0.23083203211757
H            0.64915217315961       18.76783159851275        0.75890692761328
H            0.79787800074111       17.11565888553563        0.10327786410011
H            1.57835996858274       18.48344753126971       -0.74201944815671
H            6.89287839979159       13.74290333294753       12.88200789760020
O            7.02101715451426       12.55612663555386       14.57340475020390
H            5.34670516678299       13.09458227081590       13.48383296846104
C            6.91923949631842       13.60522766025182       15.51097300964500
H            7.33366901784009       14.53608892333712       15.09810685146993
C            7.69523396741187       13.20431129669780       16.76201180920619
H            5.86750049815536       13.78709056929058       15.77775526315138
H            8.76331832333836       13.11265771927000       16.51838529658004
H            7.33562568511620       12.22543881824811       17.10850492207584
O            7.49128850465515       14.18934814827853       17.75027910533159
C            8.25884098356187       13.96598343638009       18.91804916270868
H            9.33199389983258       14.05707593128300       18.69587073862244
H            8.07807664269994       12.96142554800868       19.32264677738377
C            7.86032238953578       15.01688213377216       19.94959932194734
H            8.03124229933333       16.02107313502005       19.53300845591477
O            8.63082277852262       14.82360029541904       21.11362300264197
H            6.78768791161018       14.91904969280474       20.17380751866046
C            8.31822474863007       15.74341414103583       22.13539476714878
H            8.50345266392611       16.77422924586953       21.81038368446303
H            8.96770617825122       15.50198662213748       22.97412063012502
H            7.26916418426955       15.65260228085723       22.44185349898764
H            8.80792019859053        5.68496727116330       12.96111240834531
H            7.20728115698512        5.57696677661522       13.72520526228860
O            8.51059112810235        7.02847723457357       14.41714321558164
C            7.55228718508882        7.51485996382697       15.33961873867277
H            7.03195508664014        6.67357234634884       15.82273726465989
H            6.80756467136219        8.15727041409511       14.85743273448112
C            8.29540341509986        8.31802560687430       16.40281055172441
H            9.11899653404947        7.71223974239590       16.80870156275304
O            7.38226028323097        8.65913380367069       17.42291363448128
H            8.72399510599750        9.22224001656054       15.94837068394258
C            7.97382540240296        9.42143631688134       18.45217906241142
H            8.72360615055561        8.82732966793967       18.99487093931447
C            6.87470729652797        9.87701118481585       19.40781747401527
H            8.47805544008430       10.30586120412612       18.03712216664651
H            6.45942556268630        9.01135109134029       19.94370151726547
H            6.06236330698591       10.33742236095288       18.82532907430274
O            7.43000654143550       10.80422998621039       20.31255899801346
C            6.49721305650060       11.28369246949810       21.25661323645591
H            6.10476701729679       10.46620522338719       21.87253142154487
H            5.65929879286650       11.78803066991714       20.76086958385853
H            7.03662980134836       11.99189381193136       21.88187259870209
H            7.05877851876485        1.72302498371128        8.19030852427572
H            6.02661034908672        2.14072157716928        9.58623887084173
O            8.05625082615984        1.97274754113284        9.90573455155120
C            7.87053664498320        2.17328345000554       11.29419725535157
H            7.40564242598433        1.28227122022362       11.74219109781993
H            7.22863415852845        3.03509574619042       11.49837785156236
C            9.23490803853661        2.42898651830463       11.92793117014466
H            9.87345603000500        1.54211038672588       11.80967118579252
O            9.04937808442253        2.73132042124807       13.29581052189904
H            9.70646237072370        3.27290221775348       11.40587342065862
C           10.26698385154960        3.00150582094450       13.95859435692439
H           10.88090164564600        2.09079856566603       14.02384129815760
C            9.95625509370559        3.50169292560177       15.36608763543724
H           10.84237185839616        3.76326192055608       13.41448595140106
H            9.26907217683838        2.79598895042987       15.85736649473487
H            9.46493071904409        4.48292116539749       15.31011004549986
O           11.16716422825583        3.59504279877781       16.08307346901564
C           10.99820223629129        4.14543954838968       17.36976872114395
H           10.33219395315925        3.52461805933541       17.98122047422103
H           10.58444742794021        5.15885203938817       17.31223299087015
H           11.98728418528748        4.17773013864217       17.82171848674430
O           -1.30650607421841        3.95719333286536        3.26251891396478
H           -1.16679684374255        2.78590937952008        4.96368666560439
H            0.37532095533875        3.42559077005465        4.34378065715126
C           -1.22490286374575        2.89312915495475        2.34011929834414
H           -1.64006678019234        1.97184799180164        2.77320179066668
H           -0.17806586873398        2.69900868603262        2.06260419393502
C           -2.01422178651618        3.27735733975705        1.09214857772529
H           -3.07891566668753        3.37736670166252        1.34651768207797
O           -1.82468543945493        2.27356884585377        0.11984069634900
H           -1.65562990545321        4.24888644353738        0.72451860698695
C           -2.61240593009118        2.46997928712501       -1.03921958260539
H           -3.68163399331396        2.38789325802725       -0.79589567742867
C           -2.23401870721758        1.39190320819779       -2.05015090347627
H           -2.43620745263313        3.46320361335699       -1.47279455459552
H           -2.40668377167932        0.39905941928847       -1.60782278587856
H           -1.16345519945124        1.47668605995953       -2.28905249651154
O           -3.01677010386216        1.56311274351688       -3.20923184479390
C           -2.71769662163809        0.62153864872915       -4.21514803208548
H           -2.90192091836364       -0.40178406437721       -3.86680326501985
H           -1.67180547941471        0.70320296443089       -4.53472681969756
H           -3.37566535713773        0.84739565969213       -5.05159134352437
H           -0.75868520829233        1.51138225641566        9.35523966390383
O           -0.01622131342118        1.24642441915108       11.19984987198280
H            1.02103919305368        1.45339015394874        9.41997101215123
C            1.19159237464674        1.14223499958550       11.93196138551160
H            1.90049189273766        0.48920000916132       11.40108779467445
C            0.86786797646050        0.52489389831550       13.28938845103435
H            1.66504334646573        2.11822045015834       12.08444636295257
H            0.34224318029341       -0.42972467158299       13.14126111061949
H            0.20624554788985        1.19786293877753       13.85269318076292
O            2.08182513318396        0.32190462563642       13.98037564684913
C            1.90029646047569       -0.24551039387214       15.25994385564084
H            1.38501994475693       -1.21417059923188       15.18606066126705
H            1.29579416438283        0.41561492379876       15.89753540540711
C            3.27575881187018       -0.44844922517556       15.88823083948756
H            3.88122291909062       -1.09498320305011       15.23567488306125
O            3.10844933208240       -1.03880233353970       17.15694391914480
H            3.78568597272599        0.52244551343422       15.97315025560329
C            4.33254230836104       -1.27253684297824       17.81707970805940
H            4.96728721219204       -1.95648913431394       17.24119863409185
H            4.08257644661426       -1.72301978421596       18.77516738206155
H            4.87872405697098       -0.33604371958301       17.97975127531634
H            2.37314073348793        5.79903412222164       15.38928314626140
H            1.30930078072401        4.37020946025360       15.48500328195561
O            0.59051566933558        5.99759797700664       16.40771703646288
C            0.96998783355008        7.29661931686312       16.81920044523583
H            1.33111796537532        7.89906359278168       15.97984045061307
H            1.77352740727129        7.23346036726895       17.56836078782939
C           -0.24947074258184        7.99105659808724       17.41948833712891
H           -1.05494423456236        7.98573233538738       16.67228338583779
O            0.11509671359384        9.31389560685831       17.75797302528782
H           -0.59404203620592        7.44302361335593       18.30773753722316
C           -0.96832068214389       10.07819375766963       18.24232464348734
H           -1.79773804310479       10.07830610887393       17.52069205813159
C           -0.48121676824054       11.50833476623077       18.45738618913073
H           -1.34364427787823        9.66318189091762       19.18929901112051
H           -0.05164701315568       11.88981545576729       17.51997104155983
H            0.30588403433079       11.51472764920818       19.22563604930930
O           -1.57309030653098       12.30551935287722       18.86091474447128
C           -1.19713860772878       13.63541490265536       19.14830732698244
H           -0.74449360694557       14.11489626067050       18.27272883364184
H           -0.48454385295378       13.67003326606269       19.98078026296791
H           -2.10944745585413       14.15980902454297       19.42498009699946
O           -0.77746017055308       12.28172206550293       14.72014309292110
H            0.81338899650939       11.08855434166807       14.91070043130124
H           -0.73752893839910       10.27507799115190       15.21248999451855
C           -2.18072903193518       12.35243371033098       14.53640188370439
H           -2.64955374535304       11.38226143048868       14.73509568343486
H           -2.41824611815914       12.65182690241922       13.50754329736534
C           -2.74427900884754       13.39217500381200       15.50505154371079
H           -2.61040664387240       13.04808989228463       16.54004320736778
O           -4.11609370300753       13.57150212829106       15.22155556656948
H           -2.19728346981605       14.33793770877829       15.37663794637537
C           -4.73508404862853       14.49022739432970       16.09578365230928
H           -4.66038896199510       14.14454597507877       17.13691980973507
C           -6.20296973389875       14.61399304298070       15.70003128574722
H           -4.25300157850688       15.47664851088713       16.02636121681234
H           -6.68808284238463       13.62998722457418       15.78250336627526
H           -6.27126715497946       14.94068145724611       14.65178536997130
O           -6.82085840155533       15.54860275314959       16.55500581458833
C           -8.18448251467814       15.74496255014938       16.25624443830726
H           -8.75093304055620       14.81175413234798       16.36310503605945
H           -8.31506443098156       16.12187340883730       15.23502551021872
H           -8.55162912042799       16.48034650149259       16.96893674841812
O           -2.68656959410477        9.63862611915735        3.19851285342270
H           -1.31947287433943       11.06296635727872        3.81821316945132
H           -2.93504552925825       11.07905018088978        4.57039356440740
C           -1.74343174384621        9.04591301214621        2.32464722587533
H           -1.05478268613552        8.37855156114889        2.85484885358113
H           -1.15536705852594        9.82568810595137        1.81706351536694
C           -2.51816128274827        8.24912890354805        1.27945236113881
H           -3.02495107325337        7.40251518310631        1.76316589061392
O           -1.60984944084516        7.79102123943731        0.30074368759036
H           -3.28223792930900        8.89644917163842        0.82443146688435
C           -2.23579524746730        7.02798521039530       -0.70734645136580
H           -2.78184928063074        6.18043308678889       -0.26833586522585
C           -1.15844159513814        6.49654653766302       -1.64846475123291
H           -2.95614985824969        7.64094598857691       -1.26844419551811
H           -0.37140326547619        6.00870162940857       -1.05355796176156
H           -0.69964773598350        7.32938941969886       -2.20069484392306
O           -1.75623183044613        5.57886925351375       -2.53531061486858
C           -0.84919955709689        5.04653057248259       -3.47626284934469
H           -0.02758696121406        4.51941562078858       -2.97693998298506
H           -0.43029872395299        5.83691668688628       -4.10995077185642
H           -1.41981278842571        4.34807423886767       -4.08453252704456
O           -2.25807234200700       14.51060578400073        7.81354979801916
H           -0.20341872503608       14.40838350079750        7.91320273091231
H           -1.02070862671077       14.96410754149511        9.40413648308428
C           -2.23288860208611       15.71511433178542        7.08636916195063
H           -1.37510437500127       15.73918404467835        6.39705820052198
H           -2.15470887559044       16.58010042363287        7.76208441583926
C           -3.52650263865941       15.79423061316422        6.28174802394666
H           -3.62992835177488       14.87487112164898        5.68802790325373
O           -3.47303538703535       16.93224605109020        5.44843520682822
H           -4.38409099009665       15.85358648759409        6.96648321481825
C           -4.63036515631211       17.08118480196332        4.65337501842695
H           -4.77550451860409       16.20145974233546        4.01021247480009
C           -4.45869921218438       18.32535187086466        3.78739867844524
H           -5.52350916444876       17.19218069489071        5.28501919599494
H           -3.56379806268881       18.21018907157882        3.15798499152814
H           -4.31122996952520       19.20301933942574        4.43410209725447
O           -5.61152080095320       18.48054486081242        2.99195379917350
C           -5.54832932687929       19.61033903550134        2.15031895244046
H           -4.70376433456596       19.53808175446732        1.45468586675898
H           -5.44855753339261       20.53280294327507        2.73441934907611
H           -6.48194699533474       19.62866251495221        1.59227455748683
Br           2.91078888478401        8.27745670595947        8.80609484281060
