131

C            1.78937913564052       -0.45945619999988       -7.58137229435349
C            0.90590662470101       -1.30205914039853       -8.51735505279515
C            1.70946189247941       -1.49269781886631       -9.81401932960401
C            1.99172427413588       -0.11406543951265      -10.42454260756753
C            2.65890103107719        0.82095507725486       -9.39977436166420
C            2.63079846021198        2.28247171794139       -9.87096501624382
O            0.57763393256762       -2.49828856336023       -7.87285983438442
O            1.01419711014589       -2.25486088383725      -10.77371334312807
O            2.83859052913960       -0.37145878426700      -11.52898866710328
O            1.97115516323035        0.81366009192981       -8.15135767189631
O            1.32200109266013        2.74899691121732      -10.05058055090216
C            2.70106579690608        0.38041570593134      -12.70235749448004
C            2.84310336905474       -0.62823987481322      -13.85544422118203
C            4.27192091762034       -1.19113174587707      -13.79780408782658
C            5.28303547595326       -0.04107917519761      -13.88047799405718
C            5.00255697441934        0.96706811084674      -12.75500147582734
C            5.89518066537204        2.22435253636104      -12.80011124316349
O            1.88524537777811       -1.64441464629542      -13.77044070075601
O            4.52014332650023       -2.07829637436488      -14.85921522599948
O            6.57733366363406       -0.61014590592259      -13.75379118307810
O            3.65032883505585        1.40827407662509      -12.81568639034440
O            6.24376197896087        2.65586108684888      -14.08587984595058
C            7.49536302971229       -0.37451860714812      -14.78650152544230
C            8.33001184902553       -1.64847193729980      -14.97637961588862
C            9.11251297064543       -1.88885772578373      -13.67397997049268
C           10.00784580560127       -0.66454697738890      -13.38328649391286
C            9.17395373994021        0.63439750334493      -13.38554037499660
C           10.03210781031688        1.90571067282156      -13.45149013122094
O            7.53766074320387       -2.73219160163955      -15.36008363075381
O            9.84404592537647       -3.07878860691852      -13.70889341268322
O           10.59086361367560       -0.93763117818612      -12.11754413584016
O            8.32202496103271        0.72769657693735      -14.53190349434106
O           11.05766535183796        1.73327205537573      -14.40271789592040
C           11.74347954213000       -0.24106362195363      -11.74821172105782
C           12.65931746257787       -1.18995259669379      -10.93256712487020
C           11.90309531723664       -1.58773685600775       -9.66211555028904
C           11.44933479010884       -0.33280776580426       -8.88797250970961
C           10.70118758040710        0.64334570712559       -9.80921524834486
C           10.40076137431344        2.00546341760567       -9.15546779394805
O           12.99880562884480       -2.34106473114018      -11.64548204257360
O           12.74298982178106       -2.36271685567620       -8.84692219917519
O           10.60329881214692       -0.81307600900763       -7.85576302968827
O           11.46648841697395        0.90384408998102      -10.97484014503455
O           11.46285674171133        2.91413838848507       -9.21430084516968
C           10.83248233299771       -0.41615201965646       -6.53791080987063
C           10.63928206555803       -1.66643028559421       -5.64835325678969
C            9.17547736284955       -2.10074512884964       -5.78969300107834
C            8.25404263468449       -0.92496020190171       -5.39861500535315
C            8.59415042648589        0.30965043957580       -6.24755530977394
C            7.80390070090328        1.57970082187597       -5.86434287815841
O           11.48936517901200       -2.70522406580835       -6.05296158986690
O            8.86626060325940       -3.24687223162343       -5.04703982209180
O            6.92597407024318       -1.36123816801674       -5.63889248319009
O            9.97832041229236        0.62009626487688       -6.12119478924350
O            7.45575646725295        1.66790805489062       -4.51013162011336
C            6.00838923981355       -1.31448935834453       -4.58419917329055
C            5.12185565612708       -2.56769594654112       -4.68535800656984
C            4.36377069187943       -2.48982797105969       -6.02240494361609
C            3.53779454223685       -1.18523605239858       -6.06789101266000
C            4.42778469849944        0.03918233354106       -5.77421979138542
C            3.60641671195681        1.30759043029706       -5.49231106895474
O            5.87116729532587       -3.73515814944369       -4.53092980331636
O            3.57744590585786       -3.62063069244599       -6.25596782933112
O            2.99543316698084       -1.13449883523153       -7.37696249301199
O            5.22508675092275       -0.14909899229239       -4.60063669836259
O            2.67086961212192        1.12056000634239       -4.46487802584368
H            1.27212970519389       -0.27577222792000       -6.62986163181592
H            0.00267743065256       -0.71624486370801       -8.74027835516208
H            2.67772350959313       -1.94971911893154       -9.57245367661640
H            1.04960939367113        0.33507864574982      -10.77211089056615
H            3.69850703837973        0.49036244626727       -9.26076751656979
H            3.13277030582096        2.35946834695231      -10.83644042830308
H            3.17208846925773        2.89060902527249       -9.13682524466669
H           -0.12040965702930       -2.95160919992999       -8.37206699906786
H            1.06774095893118       -3.19037616936120      -10.52755792237934
H            0.86814195713688        2.72944804708383       -9.19349161170951
H            1.72912571337757        0.89208502902106      -12.73545913382996
H            2.68874786788800       -0.12327645925082      -14.81481422097051
H            4.42417296833846       -1.69299211787157      -12.82803733392948
H            5.18113972077776        0.46154560917940      -14.85173596049188
H            5.17182766363170        0.45485009727716      -11.79823412531406
H            6.78036964591310        2.02605517863290      -12.18586603498371
H            5.32112441410380        3.03773418943358      -12.34903233397585
H            1.75837557359681       -1.88796371512907      -12.83526044434263
H            3.73172715791958       -2.63594235567866      -14.97382016204760
H            6.97227405063393       -0.12689111266933      -15.72161748097252
H            9.03868550988411       -1.48285299724547      -15.79704985077703
H            8.41137150793444       -1.98895510710980      -12.83628294808211
H           10.79674121142919       -0.58432775289533      -14.14506759015792
H            8.56716370133915        0.63269083400369      -12.46822761531527
H           10.45040720904518        2.11133966155709      -12.46141654142333
H            9.36284050227643        2.72296129551785      -13.74137214622505
H            6.71928211563177       -2.74078517879224      -14.83809609842099
H           10.33134580073438       -3.13750583355156      -14.54678512001261
H           11.44901740766167        2.59780170410084      -14.59761927992281
H           12.26688702980699        0.14317644271098      -12.63455937940983
H           13.55271274545283       -0.62488738333510      -10.63413569480912
H           11.00558096777940       -2.14720606360437       -9.95927181969670
H           12.33767513626085        0.14946733109095       -8.45482215688761
H            9.74513886402807        0.17042268121382      -10.07692137760139
H           13.74158150489738       -2.15751113921090      -12.24118851515191
H           12.21719726373384       -2.70687378981442       -8.10318624125896
H           11.84481079137995       -0.00419084233176       -6.41765086790566
H           10.82232606130773       -1.37480603274022       -4.60536483579242
H            8.96865423806219       -2.34493567568245       -6.83821011261966
H            8.38673998839026       -0.67725276176470       -4.33505707468124
H            8.37337774298291        0.06105397442844       -7.29426771140736
H            8.45399456041308        2.43361595030496       -6.07122267233610
H            6.92376878332363        1.63346834634851       -6.51399205886423
H           12.34588329598787       -2.63167904082046       -5.60243807659621
H            9.23948777987570       -3.17619083240777       -4.15311069092719
H            6.65417223157769        1.13728191220165       -4.35215741584805
H            6.52143401342990       -1.29336357913822       -3.61187168630075
H            4.40389784578497       -2.56451400948743       -3.85704603173362
H            5.08622660853666       -2.45119361834994       -6.84758362986495
H            2.71882459662623       -1.23155964121020       -5.33419976172739
H            5.07005932631067        0.19425885130363       -6.65172963524871
H            4.30307078481512        2.11786588376988       -5.24931961508691
H            3.04930449092577        1.57662891645001       -6.38923505276362
H            6.63790548791026       -3.71936607900205       -5.12743977145807
H            2.99494772517370       -3.77839064280223       -5.49514336748877
H            3.14647090750924        0.98834281695045       -3.63060929656392
O            5.67952955271769       -1.30461086457472      -10.27163712576159
O            6.11002446444396        0.27120413519831       -8.61185547432424
Cl           6.70128648018898       -0.58413647466278       -9.59571739101757
O            7.59438047420936       -1.49155289392544       -8.96410972143364
O            7.41921995948730        0.23235980221662      -10.52351718463852
H           10.08017085189632        1.82931083577933       -8.12162258018600
H            9.57534433620211        2.47209517733442       -9.69761641015252
H           12.23606644086000        2.55751319962770       -8.75372956265175
H            6.97580498592253        2.10566366026092      -14.42051542183839
