69

Cl           8.04434531061931        3.53015502799236        3.47773864686835
H            4.97890168881431       -1.88312859076696        1.63171274703861
H            3.08921589119561       -0.04984207998321        1.30985745615626
H            1.65786528110913        2.87377591844899        4.07135989700252
H            2.30903541636664        3.96936933806239        6.39766897996970
H            5.32632502526085        3.68633141502518        9.37094923143760
H            7.22910801478610        1.86708758891380        9.69488104542705
H            7.97489338255434       -1.55831202511954        7.40696344930998
H            7.31306781676029       -2.65568232077127        5.08362102997241
N            5.84854181814543        1.09675993805989        2.56847670016347
N            4.78070674454116        3.70763769153782        4.31667784958976
N            7.01132498022113        3.03581986092079        6.67834245123638
N            8.14801375646033        0.47030351309277        4.88433798981052
H            6.47437063477958        1.80321446233855        2.92513004865454
H            5.74031675729826        3.77695287064949        4.01494440027157
H            7.26976470064868        3.13134967554545        5.70777854741678
H            8.28044272791492        1.35936742819232        4.42756615849489
C            6.17093201353294       -0.21652817325983        2.41127859447787
C            5.07120759900625       -0.84421835607094        1.88143507739062
C            4.06792567261361        0.12941131267301        1.71009957248148
C            4.57771737710280        1.32963973290295        2.13926088190800
C            3.96334760590198        2.70624644726450        2.15325532531040
C            3.77118973318053        3.17673444593564        3.57327798927015
C            2.63681690114796        3.21489139976997        4.34619346272850
C            2.98242406686485        3.79614053930635        5.58105824369329
C            4.32067257510893        4.10049456081934        5.53639080090888
C            5.19887294020211        4.77160472706630        6.56247706484883
C            6.02112147968533        3.74004772346739        7.29196303599538
C            5.98900118508230        3.33633536031437        8.60369583345494
C            6.99927300640316        2.37004944328795        8.77592647906993
C            7.62500820776790        2.20542712866765        7.56535908305261
C            8.78201651102173        1.32449414523601        7.16877453271256
C            8.30203347392104        0.25533292399241        6.21968677485160
C            7.96871142499315       -1.05506230499396        6.45986272815680
C            7.61702223770556       -1.63722040716224        5.22725708442584
C            7.74212536972652       -0.66979081114756        4.26060462244906
C            7.53168716069627       -0.75677913253686        2.76978981457720
C            4.87642333800780        3.68518455747209        1.39324185204481
H            5.87290585100606        3.72752668067339        1.82344404970148
H            4.97597849549146        3.37027961211231        0.35577211185643
H            4.45355624247788        4.68839555906923        1.41665205588752
C            2.60534501756542        2.67226748668665        1.44241623741552
H            1.93828802577402        1.96699369154703        1.92780795669679
H            2.15035440736225        3.65970813289879        1.46954989966394
H            2.73708339401588        2.37168248698205        0.40565974617434
C            6.13326316886161        5.78510432448049        5.87751909246790
H            6.80786814985174        5.30549823735241        5.17411837542990
H            5.54902010977928        6.52704338730663        5.33546533575093
H            6.73986951439194        6.29386143658488        6.62501108368450
C            4.32198991310797        5.53426681852282        7.56237190344675
H            3.66883350279789        4.85133984859422        8.09601863125186
H            4.94881064728426        6.05317682012740        8.28384177089866
H            3.71058984061267        6.26328441024402        7.03552934957798
C            9.38354197328329        0.66502350546124        8.41529618150659
H            8.63284001656734        0.08095422096513        8.93781084775505
H           10.19975283837804        0.00672767400537        8.12649771865897
H            9.76507565873835        1.42727981690338        9.09063830354190
C            9.87724404542309        2.17585450350719        6.50265938359863
H            9.50452426227250        2.71213125638574        5.63472266823795
H           10.25503354127500        2.91263454164850        7.20974628211561
H           10.70225940536271        1.54191352053859        6.18148060072658
C            7.64131725892025       -2.22075599576267        2.32768977290847
H            6.86419781713371       -2.81892992833067        2.79260338343316
H            7.53677596712670       -2.29117911984254        1.24756648810766
H            8.61052929180783       -2.62095597207335        2.61646007007301
C            8.61537246521485        0.04865044263193        2.03119854400380
H            8.56577517545402        1.10761265747423        2.26829614055217
H            9.60507727536408       -0.31552173236868        2.30237290503422
H            8.48550611520243       -0.05649124024000        0.95526592904801
