93

O           10.13199555243699       10.95033535709947        6.06467166272810
O            6.23101221311964       13.72381175673547       11.35420048940678
O            1.88799376140607        7.42902155854506       11.33942618443053
O            2.64077055754227       11.46974719628860        5.52390857203907
O            5.72401469009902        4.91253979413934        5.98927096088923
O            9.16440020107801        6.92214252448148       11.90349829302502
N            6.26829869212108        9.17612637059760        4.64248279645738
C            7.70030430046117        9.15188294350225        4.44862240232565
H            8.04496836045774       10.14538106528649        4.14992741049380
H            7.98708875265558        8.44202794771476        3.66017898653675
C            8.46218731348013        8.77260523757161        5.73403351339488
H            8.09635318868835        7.82574091420440        6.13357001382604
H            9.52640063246295        8.68741522289813        5.50061207525065
N            8.31422095744749        9.79603882284356        6.74027236740782
H            7.45980773433430        9.78105175158124        7.28123064246493
C            9.12115626281418       10.87307909250736        6.75788818670945
C            8.68867101714037       12.00312495689412        7.63529023119544
C            7.81470520829862       11.83545026649800        8.70184598796328
H            7.51513325070577       10.84195684025675        8.98408449041473
C            9.14866377792350       13.27981911895346        7.32132847326036
H            9.83912514332736       13.38646112542095        6.49792091152400
C            8.72225470306616       14.37590498753914        8.04939381136669
H            9.08453231533444       15.36266159242937        7.80372457162435
C            7.81882643016270       14.20638607535184        9.08215051922729
H            7.45602737674677       15.04714834853540        9.65420914205453
C            7.35207266242684       12.93531804482477        9.41225819293357
C            6.36275487616731       12.82562419976393       10.52669474829203
N            5.59591567388205       11.72000366935633       10.54213349577066
H            5.76641371007111       10.96548510428282        9.89273608066578
C            4.63768841410077       11.50065354080770       11.60103231799261
H            3.85316699494104       10.83741419847890       11.23454188606434
H            4.20809444034304       12.47229178168161       11.86009736243959
C            5.30040684645446       10.90414315113169       12.85414755131189
H            6.18775498458030       11.50263021238182       13.07105206236070
H            4.60677680545311       11.00992876846261       13.70111717905697
N            5.68493550567848        9.52450170881027       12.64422574237199
C            4.67655826846844        8.54656544741890       12.99337155418793
H            3.70224067309011        9.03614090081081       13.05021716502413
H            4.87927466691145        8.07889768185119       13.96906830505600
C            4.57931387461118        7.44119962411722       11.93002521725286
H            5.56895611104943        7.03714148250034       11.71068275094372
H            3.92957345079034        6.64550861153942       12.30357467225907
N            3.99234405091429        7.93016576985646       10.70451099731972
H            4.59650033171441        8.40080959518234       10.04762655558631
C            2.65922354362258        7.91974816954558       10.52003589809022
C            2.16791096837020        8.48551842167386        9.22789134553520
C            2.88677915725827        9.41696985241452        8.48989549469954
H            3.81199167156469        9.81543154637228        8.86910524915480
C            0.93283487355171        8.04522414863529        8.75626352999500
H            0.38501926993331        7.33028439369466        9.35169374305075
C            0.43068669145350        8.51696755642877        7.55768568362395
H           -0.52853077898151        8.17472146307249        7.19998078858021
C            1.16861189566204        9.41640583267106        6.80970658652747
H            0.80824672143641        9.78651690232750        5.86141473284531
C            2.40651837828719        9.86356831951922        7.26535043261261
C            3.19078744097121       10.76871462203633        6.36955695904710
N            4.52642976280752       10.72194852798551        6.51563684181749
H            4.95153691747801       10.09792063131561        7.19164660647282
C            5.40294187887156       11.32923111227127        5.54372620992555
H            6.36082283554013       11.54405749235779        6.01853599188868
H            4.94147264214459       12.26265727381502        5.21031782545669
C            5.59280089453156       10.41200370711103        4.31829876310679
H            4.59648591509825       10.19000200924818        3.92696087833571
H            6.13991071588099       10.97966556955511        3.55289064273797
C            5.56172787895549        7.95557942633462        4.32595073844452
H            6.28515879099951        7.17267975446554        4.08437660378687
H            4.89859799583334        8.08693358326136        3.45860506240147
C            4.70876412984111        7.44068905271115        5.50169631692247
H            3.99552548921590        8.20079040221984        5.82250948774131
H            4.17100547719153        6.54550047798454        5.17922070035697
N            5.53669803768415        7.07040880350388        6.62335692419105
H            5.86342331054918        7.82046387746355        7.21744369451581
C            6.05365641956064        5.83290718102489        6.73235503543452
C            7.09786305238648        5.65181312331510        7.78634129614043
C            7.20006090943251        6.48489893462230        8.89321023731156
H            6.44208564102309        7.22880063043138        9.06336270293175
C            8.02660929761304        4.62873543449383        7.61108114037118
H            7.92102073207327        3.98294763314248        6.75216455461467
C            9.05608382296305        4.45534615965904        8.51839161692424
H            9.77004394258537        3.65776309464462        8.38021556294104
C            9.17809611406953        5.31658157847870        9.59300506001525
H            9.98383977118172        5.21563461515208       10.30466489368591
C            8.25546664618789        6.34332607609086        9.78470455454202
C            8.46668761387969        7.25556917186982       10.94899219204726
N            7.90146383749420        8.47334950802632       10.86635242689205
H            7.27852421858741        8.70195527450663       10.10461283687754
C            8.04703325831365        9.43068612134260       11.93866175797650
H            7.93059156587713       10.43553913403423       11.53092091740421
H            9.05461040126920        9.31367496933987       12.34762685299270
C            7.02884931617484        9.18998722822830       13.06493230500596
H            7.07561786554117        8.13167371553641       13.32930253412170
H            7.33881476035888        9.77245905358714       13.94551196792983
F            5.99406465851979        9.32442521480464        8.60359969882128
