199

O           12.39586684590272       22.47249084535140        6.20552500576983
O            7.84999401772279       23.90365926931269        7.10583024259681
O            6.37331276127078       23.23802822677414       11.51860951094093
O            6.31105819991927       20.93382894893705       15.67669551587366
O            8.02342725830883       17.48032291802630       18.35504400825671
O           12.57471952919652       16.04522293307235       17.48344708793821
O           14.83154116765078       18.29591583077112       14.03439860743272
O           14.64214871445639       20.67368126184161        9.92251447544066
O           10.86529262557261       17.71541263741875        6.23408827058326
O           12.39043565185980       16.68654587411504        7.63304491985164
O           12.46134290590360       14.38146894271168       11.76355538966946
O           10.98562467714358       13.67189756441987       13.39476956812556
O            6.55396743869034       15.06408725102470       14.25034886436658
O            5.25519940253931       16.62888786077542       13.14866740609687
O            5.16994625920589       18.94055895090775        9.02214641732281
O            6.43150816908063       19.11346511704012        7.09250620191099
C           11.16820804974928       22.95013696724675        5.84332899138254
C           10.04693122784522       22.93463213409191        6.67177121320797
H           10.07446104181759       22.42301588165566        7.62395998527487
C            8.91756965590209       23.65506226478148        6.28743730959458
C            8.87232506768682       24.30858712127360        5.05890896988905
C            9.97869559877500       24.27370791515003        4.21853751246273
C            9.99992890657832       24.96821264160306        2.89897783590144
C           11.13100227215360       23.61240936214944        4.62029475895643
C            7.40462604411086       23.02104181767085        8.05479362964548
C            7.11536881713705       23.53344650699916        9.31077255980971
C            6.56656622227632       22.69946312111363       10.27758827921236
C            6.30413714502121       21.36861173477337        9.98252857927291
H            5.90756087259618       20.70061731170624       10.72968218782453
C            6.58087598021385       20.87640217226271        8.71888045902397
C            7.13874880246397       21.69106398813440        7.74868671219150
H            7.34581772236441       21.30106249922836        6.76542298715929
C            5.66556073220981       22.50828552593827       12.44769467739609
C            6.32001713185609       22.10606848128436       13.60490818084556
H            7.36413441185678       22.33448383192021       13.74416477978424
C            5.63375198125982       21.36001799724628       14.55226677136568
C            4.28918139343731       21.05545318363017       14.38118885262812
C            3.63911796459706       21.47938873329172       13.22624011707255
C            2.21380314011260       21.12497876729514       12.95586616459988
C            4.32946176829262       22.18810226392772       12.24918001258028
C            6.58909228194702       19.60029153198262       15.78937795867197
C            7.18258406728231       19.18654410187593       16.97569418173707
C            7.53605151855528       17.85450073830316       17.13146029229557
C            7.28767902306921       16.92904950793235       16.12415199638269
H            7.54068040493471       15.88995208221576       16.25880114953506
C            6.68222446257889       17.35363314930903       14.95379724245385
C            6.34265000957682       18.68391331657623       14.77519243176771
C            9.10485776325016       16.65959938726079       18.52366023835681
C           10.22618646742336       16.66317283578710       17.69685324724323
H           10.23705690416995       17.24821690656070       16.78749293953853
C           11.35442260682636       15.94489089231355       18.09096312842591
C           11.33365590565625       15.18093655366912       19.25322673299479
C           10.20118916600595       15.16278076253307       20.05566391885828
C           10.22916234887761       14.31548612849641       21.28287134957352
C            9.08671445455604       15.91066698180050       19.69745607324562
C           12.73620539546416       16.22276848070241       16.13514295246017
C           13.67000967534771       17.16438917114174       15.72898828050105
C           13.94223493429721       17.31518925366834       14.37468383729554
C           13.29092057277282       16.52230525540603       13.43883597332228
H           13.46468159815033       16.64695845223905       12.38230350929799
C           12.37680571624517       15.57206262626221       13.86122237033148
C           12.08555231176103       15.41870403378731       15.20584664053332
H           11.38064891101448       14.66976156918728       15.52855280767946
C           15.20765583358810       18.39687573000033       12.71069539474802
C           14.76804316225553       19.48896769847637       11.97631697837888
H           14.13512238272628       20.23261660828507       12.43254550627048
C           15.10330148568421       19.58698896396891       10.63209403549501
C           15.89309043923524       18.61563365070959       10.03257990560773
C           16.36568601788624       17.54882451462770       10.78912476593574
C           17.18200082485081       16.50985135035689       10.09315026449353
C           16.01889187077577       17.42918066091057       12.13144396584290
C           13.78648443705478       20.45379834778126        8.88014771149964
C           13.49472451194370       21.54364928424559        8.06864295332770
C           12.57509486713202       21.40033095304953        7.04026612165196
C           11.95405584912512       20.17850933300048        6.80529771951885
H           11.25734942087374       20.06512176293871        5.99065714564064
C           12.26359004061331       19.09949933838026        7.61547486790310
C           13.16571019647987       19.23237642093531        8.65679080765944
H           13.35692629768452       18.38562636548869        9.29575846888291
C           11.52651238128329       17.78599548012645        7.47360799128851
H           10.77525613232941       17.76401423512091        8.28681926477135
C           11.86261277245404       15.63678353046437        8.38198998650057
C           12.38036813644027       15.45285683723134        9.65378699904844
H           13.16683980457195       16.10421907794877       10.00150145757415
C           11.89770252932109       14.46006406376707       10.49126761247875
C           10.88135263160247       13.60858482693166       10.04916189737058
C           10.37420483093600       13.81899270409942        8.77503998596009
H            9.58525382160271       13.17790759058603        8.42523103811830
C           10.84132706775634       14.80295191769157        7.91706333033492
C           11.61674360087551       14.78749846359948       12.81447679890810
H           10.84580876702822       15.46972468875150       12.40686258426915
C            9.64621006013021       13.60058859320294       13.03637361209004
C            8.72733274803201       14.20926981667974       13.86755111095627
H            9.04953169704932       14.67205129145876       14.78628985460648
C            7.40991161103124       14.30381815938366       13.46505341250045
C            6.98586481771847       13.77437359823457       12.24729738850404
C            7.92724720727046       13.14694338285333       11.44157765982607
H            7.62263840573090       12.75744191215940       10.48572861511743
C            9.26315167448384       13.05839006272556       11.81095502661332
C            6.48075273855777       16.39465310240767       13.80074687946014
C            5.29597521217368       16.51970977350635       11.75902310299979
C            5.18833624005014       17.69798966964385       11.03805422555484
H            5.06769380045966       18.63237385896497       11.56358649612284
C            5.24928890453978       17.70129092777274        9.65437470441006
C            5.40729663018818       16.49899615718567        8.95900076427157
C            5.51519212556029       15.33356552923784        9.70322100281071
H            5.65030854473454       14.40507593129038        9.17771466403571
C            5.45190183858004       15.30317392296737       11.08932413033653
C            6.38086908536221       19.39792178527346        8.46959866023841
H            7.21806618267935       18.88145175062256        8.97775007571658
C            7.29646373270816       18.05988020476772        6.82741277501750
C            8.60286990018803       18.36943786908768        6.50241225870853
H            8.90948892406256       19.39814871776066        6.40511249007566
C            9.53394721685615       17.35458784708333        6.39522082820862
C            9.17395994165534       16.02233060373160        6.58984167850039
C            7.85011213870978       15.73964964630783        6.89642896010771
H            7.55915294631362       14.71755994441425        7.06551202577773
C            6.89686132930611       16.73961286513244        7.02603617091109
C           10.26475743925854       14.97361989679276        6.52519293682507
H           11.06662487008678       15.38491951571392        5.89921373008000
C           10.36000856029944       12.49222765943782       10.93453051583112
H           11.18289019119191       12.21281287379455       11.60422097852556
C            5.54024971613733       14.00099913088555       11.86065630382928
H            4.99140331264501       14.15076054219607       12.79918800499940
C            5.46460811295607       16.48503970158647        7.44383829662970
H            4.87853002432935       17.34688326187501        7.10025074652963
C            9.77942505211062       13.66423490824546        5.89668408665381
H           10.57388805160900       12.92055604690226        5.95647562029728
H            8.91786899906428       13.27257897750921        6.43447334515579
C            9.36181802534999       13.87256600906651        4.43604293967747
H           10.20566249898820       13.79353571638053        3.75379279719548
H            8.91487037335151       14.86451008354483        4.33036286552674
C            8.30265501918013       12.87625260982701        4.03309185574303
O            7.30391297115704       12.64399981319059        4.67868134115809
O            8.57141802017533       12.28199922541576        2.88610715660124
C            4.87595188327052       15.21903322513154        6.81454381991305
H            5.46347017278348       14.34078419218003        7.07046485731615
H            3.86586307786521       15.07434880774892        7.19643410498096
C            4.84411018632704       15.34300951728668        5.29413542808789
H            5.83396893988469       15.59599428323857        4.90864977562269
H            4.16833047320765       16.14202825736839        4.98066701636198
C            4.40416103541034       14.08265784435255        4.59426465384664
O            4.44240213175890       13.94093163824477        3.38884327027475
O            3.94705125014946       13.15059351608380        5.40435977643356
C            9.92739966303007       11.24050571511162       10.16686247187492
H            9.13813899090206       11.47224334895571        9.45436093713895
H            9.53392136752910       10.51940542398525       10.88357018995534
C           11.11521455009595       10.62507715755412        9.41287899159376
H           11.79657200728677       10.13827383243986       10.10795723590477
H           11.63822177882382       11.41038686897107        8.86634658189447
C           10.60096070049581        9.61346571482158        8.42176134661397
O           10.11906007775048        9.89479220106866        7.34601635382975
O           10.69982742478594        8.37223342134692        8.85949506364126
C            4.91060849206552       12.79947523887085       11.14755688231290
H            5.00949454631692       11.94060200036504       11.81265005833987
H            5.42846629516868       12.57680765008772       10.21869055229093
C            3.43166686258003       13.03401062970626       10.85184030353220
H            3.27912840045454       13.95920548344714       10.29486387308715
H            3.03754292828688       12.21482560616995       10.24697781257258
C            2.58809241493953       13.10051652845043       12.09664146264164
O            2.92770013200106       12.73705656270373       13.20168782410536
O            1.38123825799110       13.58960591500539       11.84930741944213
H            0.81632406362707       13.62046735287798       12.64533216237193
H           10.33932220059038        7.71425197991402        8.23246513296494
H            3.65698796051326       12.34744556212530        4.92977868815869
H            7.88745338250095       11.63838808820373        2.61522344283590
H           14.17649092879653       17.77915761246432       16.45357787369292
H           13.97558455364748       22.49135808982725        8.24272324389958
H            7.32061282070541       24.56538040119170        9.54009803670644
O           17.04136568506847       16.26794939062075        8.91554361420894
H           16.13481538280439       18.67089099616999        8.98234499028440
H           16.30760080277592       16.57317624122681       12.72214404707932
H           12.20998207927471       14.62390388761101       19.54077629409003
H            8.17969254576132       15.92560855149626       20.27956004673821
H            3.79789602317785       20.44027797907335       15.11961337678033
H            3.82245023970255       22.47125785920145       11.33963018373702
H            7.98692347480123       24.88239641335120        4.83828631767130
H           12.00728715609677       23.62470350445054        3.99343512385618
O           10.93150988958932       13.33309125443525       21.37422564105140
O            1.80084170968224       20.94449742867724       11.83273160212727
O           11.02985899465255       25.32603878342216        2.37173081777632
O           18.07636159454052       15.84925406949066       10.81367495179820
H           18.17509170292578       16.17130606602297       11.72885311246097
O            9.45073472862091       14.67561701999576       22.29491435246795
H            8.98028872709101       15.51791787616745       22.15430349030490
O            1.40358773227725       21.01069098432857       13.99817998651626
H            1.80504990999451       21.26115395244879       14.85089385574397
O            8.83537690172554       25.19063305905215        2.30264088217233
H            8.06944682715786       24.81330368710475        2.77257806389459
H            7.30457200573268       16.58221235981443       13.08475547718841
H            7.37092151781778       19.89739524929031       17.76226821581960
H            5.90989002876571       18.99065484499702       13.83679519090567
F            8.93587863017535       16.81685585408630       10.79816562031433
F            7.98046118296959       18.70311995655392       11.69523534445994
F            9.42060515900672       18.88483508531148        9.92130345600994
P            9.49871937960318       18.21858415671957       11.40153685600154
F            9.57588265831744       17.55194471621409       12.88079954574088
F           11.01698288081720       17.73962034523456       11.10240424376651
F           10.05847337795840       19.61516204311374       12.00095274342327
