117

O           16.25958498880416       -3.81680905705607       16.38319468398016
O           16.47403492697867       -5.58262083911001       18.78882485264636
O           16.94785723549933       -6.24719597848775       22.29521012563568
O           13.88912465955447       -6.29099159747516       23.08503120907309
O           11.24918325655738       -5.22650149946845       23.90526619596086
C            9.88621912030624       -3.56431761904743       22.66199642130199
H            9.15049143475818       -2.79804020338447       22.93780569029697
H           10.85546975333195       -3.08062197614127       22.47911781123883
C           10.01546827955092       -4.56028319655170       23.82413433802945
H            9.93115584737418       -4.01739528738380       24.76780388283690
N           10.76591513051065       -2.82352830332554       13.38000850725259
N            8.13278426519882       -2.97230560297383       15.40785628255275
H            9.04513425917205       -2.87165704149894       15.83059675172758
N            8.94461022860877       -0.05287296473402       16.65540160856255
H            9.62054072707289       -0.80185140769455       16.71309837164954
N           11.57306058528480        0.09010485294932       14.63391696988543
H           11.48607233609920       -0.70180083512784       15.25536037335850
C           11.47912340871934       -2.14558748411896       12.43983459752305
C           10.95113283847145       -2.46699141455024       11.21408472175701
H           11.27376419724169       -2.10616089928865       10.25703218273416
C            9.89932773835786       -3.37743948710997       11.43395302834960
H            9.29156647372350       -3.82057981492806       10.66949607488109
C            9.81060765796492       -3.59062658255142       12.78815243678036
C            8.90558934039635       -4.50828402622729       13.57003359038598
C            7.85545218743555       -3.70921377445189       14.29814242020637
C            6.50887256378845       -3.58811518868716       14.05500258282734
H            5.95455679155435       -4.03712031745058       13.25420723704087
C            5.96710799311608       -2.76415860663022       15.06027157966873
H            4.93526458692900       -2.48558102412703       15.14911005885102
C            6.99659515456744       -2.40213650320286       15.89324154766446
C            6.99705234640183       -1.55951757714987       17.14207588542953
C            7.60477836098800       -0.21702088073774       16.82887878424339
C            7.01797221843962        1.01514731817397       16.67983138928830
H            5.97301824296234        1.24641345221299       16.74931484083437
C            8.04594978277326        1.94350932448638       16.42594778467289
H            7.90792007302180        2.99548862660435       16.26975475418428
C            9.23554264590092        1.25631698983231       16.42477428288923
C           10.64740849293048        1.76201452694407       16.27118201286200
C           11.21024860860438        1.36787035943873       14.92968409842018
C           11.50589449236849        2.13922252243537       13.83203450555037
H           11.34499796944614        3.19377689664736       13.72142490959171
C           12.07530909314385        1.29505288001340       12.85929934355239
H           12.41832268514922        1.60290884414958       11.89095118761961
C           12.11399100853659        0.02819883517386       13.38661741736080
C           12.64070448043336       -1.25809819291232       12.80662596322225
C            9.73479643975504       -5.31951234419453       14.58162835505781
H           10.24481183920178       -4.67873503454896       15.29485349376049
H           10.48729475258180       -5.90900511147671       14.06010963084947
H            9.08672261480753       -5.99378414928899       15.13937022867400
C            8.22615803316035       -5.49438844387057       12.61230284899337
H            7.58020814358743       -6.16733599087488       13.17150319257907
H            8.97867208621143       -6.08007459543296       12.08926910148765
H            7.62631447748832       -4.96377265518279       11.87994947478487
C            5.55332886390056       -1.37099814343224       17.63899344117412
H            5.55176056141314       -0.76433826340439       18.54158581347784
H            5.11313031618556       -2.33968558954234       17.86358574492175
H            4.95377315157267       -0.87782292652619       16.88055679068382
C           10.65853189946809        3.28982988747068       16.40143949544732
H           10.05067420464733        3.74374360925700       15.62525871779698
H           11.67654371985127        3.66139625058924       16.31039558825611
H           10.26173332901736        3.58078617190265       17.37131085964136
C           11.52989191856086        1.18056691380666       17.39065457686037
H           11.13838752051897        1.47129850637121       18.36430820438147
H           12.54748843570892        1.55653071217295       17.29674814060002
H           11.56869563204741        0.09578731609665       17.35352507222841
C           13.47979603703340       -0.95643859877005       11.55360113248967
H           13.86047955035511       -1.88487922615004       11.13482580282337
H           14.31935083109274       -0.31838416618091       11.81931904633340
H           12.87566615290514       -0.45285159319457       10.80553504596915
C            7.74639939762497       -2.25643654473282       18.26895801684181
C            8.37390338941140       -1.53141489521593       19.26991278917326
H            8.40604229070391       -0.45309679072051       19.20862177774656
C            8.96916780509623       -2.15445701240382       20.35441843405458
H            9.46732228575045       -1.54911926259046       21.09690856895475
C            8.93053396750152       -3.53768804330398       20.46604651212132
C            8.30818200064979       -4.27669256110974       19.46122457455754
H            8.29294161680011       -5.35305135896478       19.54665934177042
C            7.72593722611473       -3.64237389870152       18.38451514381723
H            7.24297572497934       -4.23440218724799       17.62043528543218
C           11.50384428378684       -6.13207202316954       22.85023197885869
H           11.73138411893227       -5.59927592856173       21.91897949901824
H           10.62039005255132       -6.76445260045502       22.68277292386372
C           12.68825747501139       -7.01092942589737       23.23920939733875
H           12.56732656171474       -7.31959092545956       24.28781109210968
H           12.70148359402188       -7.91020723204073       22.60331550355797
C           15.00307379059172       -6.94355346101060       23.65653356072841
H           15.17725316197036       -7.91337996793463       23.16595375082584
H           14.81458099612254       -7.12331789966651       24.72573815872201
C           16.24800321021835       -6.06077845172147       23.50406759679597
H           15.93629033309142       -5.01278034706988       23.61112534078016
H           16.97011984858181       -6.31389931107406       24.28255842037271
C           16.25393365774968       -5.80399142422064       21.14858034116216
H           15.90146106169067       -4.77226924060535       21.28413216356361
C           17.20500594569893       -5.87578852704186       19.95703793237112
H           18.02745768947518       -5.15813638148735       20.09203086061976
H           17.63775638098453       -6.88636874903353       19.89881163248019
C           17.26618316514831       -5.58889334608531       17.62228706559506
H           17.69702414427627       -6.58990491295758       17.46590896048455
H           18.08378550097490       -4.85902827666062       17.70817759062026
C           16.38729837667996       -5.22090713184669       16.43008815441626
H           16.84927997775500       -5.58884933914150       15.50291897552785
H           15.40653492422821       -5.69447930776186       16.56325838329311
C           15.35922364858955       -3.27538334552976       15.50257015655261
C           15.20621052626584       -1.89058700431490       15.55366602145721
H           15.78195003213234       -1.33546166490956       16.27918195540892
C           14.32621134539042       -1.25026952880166       14.70682740309961
H           14.22209925605569       -0.17644135724251       14.76736292239325
C           13.56532136148596       -1.96461562960292       13.78806441773453
C           13.74460631964337       -3.33786583146630       13.72603460219462
H           13.18053958858837       -3.91774048554139       13.00932327247573
C           14.62574957879314       -3.99480787735117       14.56805724721911
H           14.72162597589340       -5.06702360955400       14.48906349345111
Cl          11.16401798213000       -2.51123333035126       16.65862298713487
O            9.44647132227998       -4.26002765782294       21.51256920751638
H            9.19271694727429       -5.28626226955014       23.73975787970509
H           10.94177681858627       -2.77163536640196       14.37363434555272
H           15.37636145897388       -6.43010359200022       20.94527788152081
