71

N            9.59661230881971        2.03425897623522        0.33634923099137
C            9.00375876666618        0.92011373644222       -0.37609500177904
H            9.40346732072499        0.89605312418442       -1.38874051702833
H            7.90572686391197        0.99196318581517       -0.42813399976263
H            9.27050985691632       -0.00675978113266        0.12474450598456
C            9.17772807301232        2.07358352258578        1.72497043459167
H            8.07800860846214        2.05573917702239        1.83046670978348
H            9.54186795512506        3.00276109833635        2.16605093157726
C            9.79703457948523        0.92263432912098        2.53355619013218
H            9.18572806236978        0.01968228112587        2.48616313711703
H           10.79593653873681        0.71647949810236        2.14054719740249
N            9.90652445400947        1.28856017458337        3.92564694391904
H           10.51984746185609        2.07207997854441        4.12305270706819
C            9.06912475151327        0.83024297108572        4.86643417646393
O            8.22384228574128       -0.03878776895971        4.64358754642842
C            9.20467992365425        1.45385261578223        6.21531238193821
C           10.39082915414729        2.02650683959921        6.65986396637900
H           11.27784978261187        1.95975526260074        6.05010378228107
C            8.08205000049333        1.46796640005531        7.03980258042034
H            7.17651690636920        1.00248034263030        6.67905784696225
C            8.13652820879973        2.06313633827219        8.28685917705266
H            7.26407907287659        2.06743440691747        8.92263375676840
C            9.30871434988933        2.66028477231026        8.71268905464078
H            9.37574519069932        3.13969954867531        9.67826807640793
C           10.44016429409026        2.65334406961263        7.90006720075977
C           11.67553130438355        3.31677001875079        8.40969208545429
O           11.87254873903082        3.47478364305488        9.61526167960154
N           12.51914010676898        3.77312858745752        7.47454192484456
H           12.32640173013987        3.60378855808150        6.49815768446328
C           13.80641592902255        4.33612310270116        7.80677858489163
H           13.67479583152122        5.03385928014993        8.63953153374455
H           14.16755665130915        4.88697933918938        6.93786796067125
C           14.80283585278801        3.25197380630929        8.24939766914589
H           15.81645503297371        3.69098899081213        8.27004541814088
H           14.53360990436329        2.95344093628321        9.26516468744991
N           14.73423441724282        2.05296629054793        7.43069568034769
C           15.46541818506931        0.96267863956391        8.04466683481006
H           15.07396901946503        0.79560336565309        9.04700301820429
H           16.54553646408027        1.16788872877921        8.11371665628032
H           15.31771809766561        0.05915872439252        7.45898906331252
C           15.14096533706035        2.27076371386440        6.05507139624351
H           16.23389243956359        2.40020921883588        5.95785291089963
H           14.66223179645527        3.18341052843509        5.69678352342127
C           14.66818686803872        1.12954471833662        5.14064009110093
H           15.38893579492422        0.31048713577817        5.11007294697532
H           13.70523873663585        0.76380271849485        5.50630626014742
N           14.50671870063474        1.60344460506256        3.78674494785020
H           13.79427853945133        2.31339955242458        3.65484605040470
C           15.39296746641583        1.34432597586155        2.81534318647732
O           16.34762993623586        0.57963799544007        2.96796933892756
C           15.16753934072056        2.05695939191890        1.52378714608416
C           13.91284499715156        2.50237690121244        1.12406924880633
H           13.04680848717400        2.26885539543465        1.72281350433014
C           16.27217803097925        2.28757721621873        0.70698712053987
H           17.23394208192470        1.91790908778019        1.03117929277042
C           16.13009612588044        2.97132782356979       -0.48659946067481
H           16.98947061896840        3.14386545074895       -1.11672047209766
C           14.88590195838658        3.44056757601014       -0.86599620786348
H           14.74898183186267        3.98484679935996       -1.78881292281527
C           13.77172901420637        3.21714993578814       -0.06031280675298
C           12.45545504708399        3.75265337157752       -0.51524179275508
O           12.22608552691568        3.97777646168853       -1.70427213921166
N           11.57215377927364        4.02317255478849        0.45480002044956
H           11.79651080899573        3.80189217060141        1.41398218168028
C           10.22006730549885        4.44280425271494        0.17158814109913
H            9.79918071276303        4.86071134257434        1.08646030606739
H           10.25216875582164        5.22466879690560       -0.59352710239969
C            9.36771599661910        3.28362932096561       -0.37037167395063
H            9.66422190814130        3.11504573433973       -1.40816029526897
H            8.30591428041055        3.58840705524962       -0.35388199570220
Cl          12.04552779501307        3.82853877477184        3.95746586182313
