109

Re          13.41505759232925        0.89141268238367       18.02559102742558
O           14.74386210292724        0.97420978078753       17.01815312848190
O           12.02268448865641        1.05156001053553       17.12036364213589
O           13.49158057775836        2.27783279642596       19.00274631117584
O           13.44032880305557       -0.68417480560950       18.66554694232955
C           13.45533960799244       -3.23726389041134       15.21505841859427
H           12.38103622372312       -3.22201199682197       15.02894153343174
H           13.88921606090678       -4.00990190264936       14.56214875181779
C           14.03449495901646       -1.85989064855870       14.86320857958637
H           13.59230939842912       -1.08459971090606       15.49532080528153
H           15.11578645894976       -1.84048913666857       14.99483760707597
C           14.27436295153676       -0.24926707421854       12.97483934523018
H           14.11600481772444       -0.17848274605933       11.89612211920953
H           15.34694891255754       -0.21451852361130       13.16620738611513
C           13.58358518866715        0.89286835567660       13.66917755277375
C           14.30972999621384        1.81915097747437       14.39742562673997
H           15.38372904971670        1.74664774117365       14.43901573830595
C           13.66697200896382        2.83593840559972       15.08513060748443
H           14.28585435866396        3.52255377520320       15.63644282113980
C           12.28311242380216        2.93301998500692       15.05717881541497
C           11.55877942406009        2.03492333122173       14.27911318157017
H           10.48455334486644        2.11969703865657       14.22185450767344
C           12.19982492155353        1.02763757290230       13.58981901366756
H           11.61165598481191        0.35719672846677       12.98010524312889
C           11.50184103715389        3.94406499128171       15.85624112357966
H           10.84427678066836        4.50349542320717       15.18661376553947
H           10.87613807697497        3.39507922609537       16.56435049983300
C           11.59482247218253        5.95737694350109       17.29173131083341
H           10.88908590388787        5.49357298530137       17.97878508670146
H           11.02651377166489        6.53293541966493       16.56108623909381
C           12.55620973317870        6.89146402951409       18.02602636021998
H           13.33046022405432        7.22266908271798       17.33284109765629
H           12.01372348162512        7.79323308370425       18.33670631938986
C           14.98905306033783       -4.12945800554537       16.86988397328287
H           15.69855527076518       -3.71200054915398       16.15548221395010
H           15.00481009017057       -5.21947289767992       16.73185453337855
C           15.46903686383684       -3.80168272601547       18.28320403491400
H           14.79549447893604       -4.19488011559384       19.04273950775950
H           16.44561798708859       -4.26481115902275       18.43535639489092
C           16.36511242467340       -1.90912457368755       19.63946084217875
H           17.32104115235231       -2.43781329412695       19.65805051283890
H           15.81261059047736       -2.15930721665964       20.54457038846060
C           16.58169129059747       -0.42634946677769       19.52119513748915
C           17.33777256587269        0.05472600855907       18.45620587990720
H           17.87113973569579       -0.62713469963221       17.81091579253319
C           17.41355028220800        1.40866702009930       18.21270102225283
H           17.98029199861299        1.76978008713884       17.36926780705004
C           16.75727220178100        2.30848673683701       19.04365233809841
C           16.07641212070320        1.83391464432244       20.15779095085215
H           15.61718203851424        2.49795707075950       20.87038206084085
C           15.97440944366775        0.47032629367704       20.38470691640516
H           15.42598988205133        0.10576025238908       21.23869299839308
C           16.80764559018856        3.76731710360441       18.67680653108067
H           17.74237499852399        4.20933382671847       19.03321118659391
H           16.79970405874808        3.84981564376433       17.58867605878169
C           15.57321668945366        5.89633893579258       18.65937238289185
H           15.32886148377347        5.82824531844630       17.60072241066575
H           16.54455419273826        6.38329252332644       18.75160606183709
C           14.53545325327416        6.72635615260128       19.41227589912411
H           14.75331506230783        6.69568823640096       20.48030266163098
H           14.63614465839089        7.77719120172775       19.11673882502179
C           12.60643761071852       -4.42557246947263       17.13765325906168
H           12.98204140488807       -4.98472097984466       17.99541936096191
H           12.29086983718873       -5.17419316139957       16.39781497211261
C           11.38877590555358       -3.61039073146558       17.56336201674544
H           11.06979357322419       -2.93823922560122       16.76730370172770
H           10.56901011247041       -4.29346451674590       17.79155530697957
C           10.46160596060784       -2.15493827426465       19.31829509958774
H            9.95556007201303       -2.85487968793092       19.98738805169785
H            9.78179309817209       -1.92468293759491       18.49739294448527
C           10.81213780992158       -0.88154050485163       20.03459688581712
C           11.78521343611211       -0.86313115319121       21.02788523468571
H           12.24815309528937       -1.77847048931332       21.36123602714538
C           12.16683694720804        0.33276729970557       21.60639129066828
H           12.92707617556547        0.33748193815827       22.37216093935512
C           11.56458923848266        1.52279185117423       21.22175629859178
C           10.55300403394013        1.49481268229419       20.26718106181082
H           10.01436333728691        2.38621027623868       19.98845685047118
C           10.19168847477007        0.30392464362278       19.66748377231905
H            9.41778987108123        0.29660195469175       18.91639876788596
C           12.00088535743857        2.82528101463730       21.83649005312268
H           11.26666506975939        3.14812740474830       22.58025134846712
H           12.95603106565775        2.69433191871160       22.34601062118700
C           12.61596941939341        5.16251468162938       21.33612904389824
H           13.67143702517912        5.08330903954215       21.58867727715038
H           12.07297286923558        5.37592871069196       22.25859541938435
C           12.34838653934572        6.30766268591331       20.36082888083088
H           11.29884462587353        6.28499326814249       20.06498245971972
H           12.49701129787324        7.25960491399665       20.88859322512855
N           13.66625040174274       -3.56186540827688       16.62179231522355
N           13.74017865213001       -1.55598189356926       13.44512969474548
H           12.72144361140845       -1.55454174800173       13.30596012575724
H           14.12398909214417       -2.30290120635399       12.85402006519193
N           12.35578106763618        4.89293914651734       16.59928087434644
H           12.90973140992584        4.37468052965632       17.29608241043072
H           13.00411191738415        5.33224669176765       15.93339970159147
N           15.59057770876887       -2.33982547906757       18.44751036631212
H           14.64871339166015       -1.85661989644351       18.48285334120569
H           16.06071433040045       -1.95523992740342       17.61900902844271
N           15.66440679998723        4.52968547012856       19.22421941377068
H           14.79643660409799        3.98721990750576       19.05496496730928
H           15.78410441021253        4.60676213330221       20.24057074710396
N           11.68351114370240       -2.79243166361341       18.75802148392065
H           12.38658045548656       -2.02929584046476       18.54334184288911
H           12.11062757852163       -3.38686404396495       19.47447145233628
N           12.14313741332680        3.86922941701570       20.79485557002312
H           12.76137465902215        3.45763188967605       20.04308660674500
H           11.22347328390168        4.01853182479906       20.36663733919647
N           13.18469457568360        6.21580513176184       19.16437617876024
