105

Cl          13.84909609581837        2.61927216304345       19.47203916922417
C           13.47169531206933       -3.59022097728778       15.17251338810434
H           12.39341475740216       -3.59064315799522       15.01667776723866
H           13.88036930419107       -4.41973885396983       14.58229949360776
C           14.04712436065294       -2.24275074411265       14.71534720861375
H           13.71640152445993       -1.46072020254184       15.40129060183292
H           15.13642155218462       -2.27499109512767       14.68998294671955
C           14.01924088652402       -0.50799247217712       12.94734991419128
H           13.69467450532526       -0.32930509626604       11.92178303049392
H           15.10870023895984       -0.46959857773038       12.97298297212000
C           13.42648714430046        0.52465670521832       13.86872504944036
C           14.15853707212108        1.00472979904969       14.94842976979225
H           15.18580525994051        0.70174991344376       15.06733955893059
C           13.58994037215477        1.88271740455104       15.85274831260123
H           14.15410617250737        2.20003823513394       16.71422742670650
C           12.28240107637294        2.31906663776908       15.67324226358227
C           11.55815469528016        1.86322951746716       14.57765329931137
H           10.54812335107520        2.20587845639601       14.41248417568306
C           12.11935665513831        0.96253671393408       13.68903125652290
H           11.54054543882751        0.62311464184169       12.84283554399761
C           11.64487301669402        3.25838905354003       16.65924581642604
H           10.79089490611755        3.74237407655252       16.18483700440963
H           11.28893804782277        2.68585016650583       17.51931897001736
C           11.90145700342389        5.56099580876647       17.48406107493422
H           11.09079988423647        5.34902498917658       18.17787624913460
H           11.46403298414857        5.97429375913694       16.57369337208234
C           12.85653384024766        6.59979108205699       18.07015801484222
H           13.72170983041811        6.69963509197885       17.41747316319603
H           12.35708032497805        7.57829097706441       18.07089001416989
C           15.06279385202090       -4.35102864109035       16.84350799433748
H           15.72595670277400       -4.11755459769809       16.01104477314255
H           15.01659643838150       -5.44467311794901       16.90702261199675
C           15.66883892854706       -3.80290490873089       18.13639439113861
H           14.98330853931693       -3.93394322416726       18.97272715375244
H           16.58679826541388       -4.34071027861951       18.37080851013105
C           16.32685586685502       -1.67232522288968       19.22730657823874
H           17.23038208439225       -2.13458445695935       19.63293862753459
H           15.53428460809343       -1.82040690569482       19.96460133694717
C           16.57078142327365       -0.19092173537605       19.05783073794645
C           16.47985918337867        0.45920914702285       17.83559930364167
H           16.25375234896173       -0.06970943142841       16.92623412865597
C           16.67591129307621        1.82728662090303       17.75285983065075
H           16.60109635452904        2.32050022625576       16.79703100520873
C           16.96634513556968        2.57432348205153       18.88397532900777
C           17.09557802194323        1.91780978186936       20.10457113192902
H           17.34974412316365        2.46813065182638       20.99900136520274
C           16.89633801644166        0.55276036996549       20.18919725714983
H           16.99080339782325        0.06233182024685       21.14753111701906
C           17.09138713046360        4.07142680940930       18.78284803673887
H           18.03556609703585        4.40841562714053       19.21568740786485
H           17.07618371681539        4.36487426661045       17.73293986772599
C           15.76581058874378        6.14312769969289       19.02846881134898
H           15.61050918972882        6.13801796912518       17.95094917547267
H           16.66983929086848        6.71882292190045       19.23335946937791
C           14.59540641275767        6.80346545235670       19.75440815169003
H           14.74148919649353        6.69503146442453       20.83046140901098
H           14.62261062856227        7.88205129680221       19.53795637558612
C           12.69629890123143       -4.53885375045267       17.27459938356447
H           13.08145966019820       -4.87676580271086       18.23737557467108
H           12.43222432701034       -5.44356466709335       16.71062990680444
C           11.42230834172956       -3.72592394348792       17.50364418975674
H           10.98792804674002       -3.38506236638968       16.56467950438328
H           10.68745909228037       -4.36523361764449       17.99337366339158
C           10.46376630606428       -1.74963727293774       18.62192467677903
H            9.75211949608989       -2.38329682375400       19.15845970056093
H           10.00674108620160       -1.47199562136116       17.67150812947119
C           10.71690884950484       -0.50454752043633       19.43440009864821
C           11.50639409929627       -0.51459063311584       20.57892681237977
H           11.97511801083671       -1.41994138276124       20.93240076775762
C           11.69020837798804        0.64323000236004       21.31575667697775
H           12.31221044789810        0.61930758188194       22.19904714130445
C           11.07604664804924        1.82996817600191       20.93906593660416
C           10.25638734617266        1.82912831104531       19.81496188004001
H            9.71854613878425        2.71821304406083       19.52613198126104
C           10.08922940349174        0.67902705646024       19.06599333726193
H            9.44991268062387        0.70174427911892       18.19747317531176
C           11.30827331103330        3.09993554542059       21.71858469574845
H           10.40418948303016        3.38087749904753       22.26513957982333
H           12.10478492434038        2.94813617557605       22.44859324924662
C           12.16793016482680        5.43057728702521       21.46439665733914
H           13.12473034976369        5.22850919480326       21.94399652469357
H           11.45717742744799        5.73684665327580       22.23309719527456
C           12.29784368296789        6.54567865967743       20.42526096580653
H           11.32763589055317        6.69961907980195       19.95080442471590
H           12.53355668465517        7.48307204442551       20.94372956645423
N           13.74071640172595       -3.75928903952860       16.60349940581100
N           13.57603960012418       -1.87422145394413       13.36257615039374
H           12.54846064196542       -1.90297173324532       13.33253218130734
H           13.91146495746993       -2.55828671549780       12.67472894791709
N           12.58884657931162        4.29247525278579       17.15716958206065
H           13.09370623650125        3.89765202174090       17.99733655957633
H           13.29335106836822        4.48013134847998       16.43653055340801
N           15.95295574059751       -2.35765870532331       17.97213237984045
H           15.11007308692726       -1.92247912325863       17.56827016522373
H           16.72076937791017       -2.24354155352044       17.29874092154999
N           15.95971088100474        4.74903155822583       19.47148206323590
H           15.07113022130647        4.18201069132185       19.32695175292547
H           16.12658019618198        4.74008540403732       20.48153350204320
N           11.68971843202156       -2.53968728834678       18.34974060626941
H           12.38503515987148       -1.95084303384444       17.87219142655729
H           12.09512019464718       -2.84612486057265       19.24171921160820
N           11.70059728352097        4.19672422490483       20.80321080866818
H           12.48312640291272        3.82555290383712       20.18119836833062
H           10.89949401051984        4.42820658572762       20.21003422205920
N           13.30163507489031        6.21685604601006       19.41008390650299
