105

I           13.29305336504176       -0.11433822595312       17.90667726126225
C           13.32284199911443       -3.35849847672639       15.19224324824355
H           12.24242898492462       -3.26756802327504       15.07943086036751
H           13.64440539264228       -4.23197521810941       14.60818883453250
C           13.98263568601033       -2.07674648020844       14.66725101948688
H           13.71736538186513       -1.24175637585581       15.32014994781765
H           15.06736656869794       -2.17398796827613       14.64470098140733
C           14.03806774705424       -0.42652142186926       12.82865917735725
H           13.74439194286479       -0.29323544108215       11.78584795390969
H           15.12696958169298       -0.42994297935405       12.88172974643016
C           13.47159188175249        0.69058148878915       13.66510532197420
C           14.28997919764016        1.48038702935690       14.45775326085458
H           15.35495139667419        1.31303561198740       14.46168211924019
C           13.75373709884006        2.48113457591367       15.25193860665504
H           14.43637104766702        3.05027672320051       15.85879471439140
C           12.38485268897096        2.70699867931386       15.26542660747586
C           11.56626273737583        1.92926788560808       14.45166147714748
H           10.50091321416427        2.09978907704585       14.43683619919752
C           12.10072143118038        0.93417619959465       13.65913058291032
H           11.44336736172615        0.35977864729032       13.02293345224883
C           11.71295830528887        3.72427894629710       16.15348461910449
H           10.91438250912964        4.20434026513307       15.58516990657464
H           11.25167705307667        3.19249434744470       16.99026814730512
C           11.87111055222172        5.86293434924458       17.35988214999171
H           11.15063190160159        5.41668741084456       18.04372081686936
H           11.31489067911681        6.42808480455272       16.61257570078984
C           12.81371227951904        6.81025437329626       18.10296920231595
H           13.66392194999353        7.05092385087835       17.46549256625530
H           12.29187674496616        7.75795111837920       18.28426536147600
C           14.94850404968481       -4.11796674621880       16.81685928490010
H           15.59455387230808       -3.81681088517414       15.99317250793980
H           14.91149273673038       -5.21478010457949       16.80480852483819
C           15.59200307225386       -3.67319478966920       18.13094889540923
H           14.90744038249274       -3.80131224536960       18.96905335929990
H           16.47480319137514       -4.28503768787813       18.31791622684221
C           16.71712544572455       -1.77367467341049       19.29841977522236
H           17.69474839987847       -2.25566697784084       19.34293436785795
H           16.14467675826425       -2.06978752635766       20.17758939209063
C           16.84601809827365       -0.27519798972441       19.23705540918539
C           17.61637861402810        0.31896879622892       18.24169634246428
H           18.21413592776849       -0.28769067514811       17.57887161816846
C           17.62620188644066        1.69080059249904       18.09477091213622
H           18.21916414980640        2.13601203830480       17.31135085630775
C           16.87661426857596        2.50003073739358       18.94322782581064
C           16.15552371349482        1.91073731571670       19.97214188599910
H           15.59685113954224        2.48769900386059       20.68859906978314
C           16.14032894705180        0.53326184365789       20.11415079426136
H           15.56350591761906        0.08500319185037       20.90744888324827
C           16.89198067285062        3.98518930972875       18.67819336776331
H           17.88879808868260        4.37677435503763       18.89535767071426
H           16.71130233515542        4.15012318749089       17.61375540839850
C           15.75014525786843        6.15139889896975       19.02438049170956
H           15.60142410808866        6.17121921675836       17.94542306116536
H           16.66645634441798        6.69851250910293       19.24327516904360
C           14.58093276830791        6.80907704654216       19.75506253604832
H           14.71388932038682        6.68351849515593       20.83006952246299
H           14.60484487118719        7.88918975733138       19.56463391067044
C           12.59486958836768       -4.37936637279500       17.26322345058217
H           13.00979078676119       -4.77033244333761       18.19383954782021
H           12.35060028281987       -5.24959929839960       16.63770047269952
C           11.28701757200063       -3.64995640293753       17.57898189710258
H           10.92236584389891       -3.08989955472463       16.71762240007499
H           10.53562430940946       -4.39527136439779       17.84382237309563
C           10.14221685253922       -2.10561791415121       19.16562401694213
H            9.61828491656210       -2.82865273891675       19.79314679903730
H            9.52594498162579       -1.89904885456365       18.28995964129871
C           10.41935543763642       -0.82502226452576       19.90938485972373
C           11.18179590379187       -0.83274621618916       21.07389042279020
H           11.47247971086554       -1.76821226354241       21.52840838944647
C           11.58822285262611        0.35464217947602       21.65015749406268
H           12.19757741900635        0.32743943984839       22.54000573133225
C           11.23005719974885        1.57654356208291       21.08926800908938
C           10.40300517268449        1.58300197124288       19.97354112334046
H           10.04457802961329        2.49552495027159       19.52798924149383
C           10.00613242739120        0.39250288365911       19.38883040185530
H            9.38713411219512        0.41135221703330       18.50563740611405
C           11.76229492136838        2.83403468983472       21.73313783099483
H           11.18812014272052        3.04066907751899       22.63996692959999
H           12.79594759619040        2.65959609512369       22.03737518929638
C           12.35415037678785        5.22193166656638       21.42379200783494
H           13.38086097957985        4.97839393976854       21.69321574802741
H           11.82637502932045        5.50380519272531       22.33440878714878
C           12.30658613481773        6.38523471858453       20.43128782206027
H           11.30634415074970        6.45577595495733       20.00372303725869
H           12.46647230736393        7.32256209031609       20.97666638763824
N           13.61224577300075       -3.54046707602614       16.61833077266467
N           13.52814161317124       -1.74792798033073       13.29945553922707
H           12.50023743309560       -1.72478625410224       13.27600201625449
H           13.82814087806382       -2.48070810997180       12.64612727994336
N           12.61635769706254        4.76959155331308       16.68491870612422
H           13.28005165088321        4.34820670425118       17.34725560981887
H           13.16085687506184        5.16039275861436       15.90526074729744
N           15.99816192903737       -2.24964371568510       18.07824276640409
H           15.14473786687311       -1.62950191739794       17.92759279663535
H           16.61411676798565       -2.10663580827380       17.27068543477783
N           15.89000934748585        4.74095856687700       19.45928215327417
H           14.96912311125030        4.28644334262342       19.37768848002599
H           16.15953708226463        4.72035100083404       20.45034692386452
N           11.43388406676028       -2.69668686984954       18.70108631456833
H           12.10683511572381       -1.86339691088332       18.40818857385392
H           11.87343586892049       -3.17544951719266       19.49182963968766
N           11.71261441610049        4.01607433236199       20.84384686670642
H           12.17023155757722        3.78414829607943       19.95163720974784
H           10.72787384196643        4.23316965390478       20.64707408118748
N           13.29621121531447        6.21648911756257       19.35734392946955
