299

O           -0.08624751736666        8.89246784704834       -1.16994274712204
O            1.22342420449568        3.49242260831462       -3.74771239721324
O            1.49177714995379        4.63189951698489        1.98894494831173
O            0.69740390024321        9.45342391054534        5.24069179828136
O            5.99319678770194        7.02480554152187        4.07371435712479
O            6.28086151975666        1.31360500446964        3.88751508021872
N            1.43331681334946        7.65822950944130       -2.38870393734002
N            0.48169694956822        6.73652286022217       -0.60921091028140
N            2.21424549579118        5.51614235397033       -3.26162439681328
N            0.76620281308436        4.66243556913435       -1.82795018480929
N            0.99421503510807        6.86365128501024        1.72634142583312
N            2.85318423526361        6.30257863457447        2.79315965002800
N            0.72171735310663        8.88007797766636        3.01236803164788
N            2.31258050894895        8.09273697361222        4.33526427959831
N            5.12085488773128        5.42695208953978        2.64947356599406
N            7.33007195678040        5.54962307657419        2.95592189585820
N            5.24145100400161        2.98659922130130        2.68919068535870
N            7.41786463653998        3.14647719357630        3.09963859502884
C            0.55573018679006        7.87644096248769       -1.36513344886668
C            1.37589361129185        4.47204815274151       -3.02174297586334
C            2.22342987002307        6.44891849893645       -2.16861165837563
H            3.24190696341184        6.72816899469852       -1.87431936443590
C            1.39420389780175        5.73426125070834       -1.08509399439191
H            1.98991970018848        5.31867511938272       -0.26843474583066
C            1.76000775738774        5.80962065117094        2.14049034371475
C            1.18798977619102        8.86297278028164        4.29195710137941
C            1.56538215839510        8.13703974567007        2.11702108162659
H            1.81941155499752        8.74458518634359        1.23801236161188
C            2.75910550328224        7.72407654636857        3.00804530096845
H            3.71171258897794        8.20913299053696        2.77537177005180
C            6.15217303433186        6.10745769808496        3.29897584308312
C            6.31366082570918        2.37681090178539        3.29308878547828
C            5.63454726572252        4.20174016649422        2.02940407494402
H            5.32326485945563        4.17562688887648        0.98261946822309
C            7.16075193540643        4.29655528699817        2.26323607677380
H            7.78914220420654        4.27788477618467        1.36627464109123
C            3.17030916053093        5.48162543744072       -4.34479354731568
H            3.50705149430749        6.50194725614721       -4.54303768776570
H            2.64299685988418        5.11542770587949       -5.22964112508012
C            4.36212996370008        4.58951909479846       -4.09163775259062
C            4.98290731831219        4.49863453953065       -2.84903367111610
H            4.62619245983487        5.07067931213023       -2.00666169392665
C            6.06876081163854        3.66212638383397       -2.66369398092356
H            6.53152201943464        3.64314990613639       -1.68655159836116
C            6.55635733673411        2.89345227787949       -3.72025884354545
C            7.67870764058461        1.93631279730113       -3.60020485151517
C            5.95387164286338        3.00917986714062       -4.97204352286013
H            6.34632571108017        2.41470803471393       -5.78217967852831
C            4.87160479251356        3.84307659220099       -5.15100573476037
H            4.40338648555776        3.90409209059437       -6.12057539085951
C           -0.29461061072678        3.84384353442163       -1.29893477588533
H           -0.01892983219726        3.48443618658431       -0.30312693680959
H           -0.39869105402607        2.98801036097219       -1.97461894957005
C           -1.59742970486101        4.60168684615604       -1.23802517223642
C           -2.43560635839220        4.48455622395607       -0.13478106300799
H           -2.16937041845090        3.82314875722486        0.67579300010925
C           -3.60698987620836        5.21348620255284       -0.06103663753501
H           -4.25490014490818        5.13231689994952        0.79871468694217
C           -3.96983336977484        6.05566432291482       -1.10944407404536
C           -5.21544805059568        6.85161401592610       -0.99590527201683
C           -3.13934196821213        6.16497110066822       -2.22439120095280
H           -3.38457785148597        6.84192675485799       -3.02885448462445
C           -1.96166958588195        5.44688902530443       -2.27984995266084
H           -1.31515968721633        5.54184666643764       -3.13905182877511
C           -0.43492973238912        9.64165750058327        2.61442420040731
H           -0.26063780648179       10.03047487428594        1.60614463880619
H           -0.50346997705869       10.49521897488075        3.29978344964050
C           -1.73899502226092        8.88620811861760        2.66485462353336
C           -1.85193081130362        7.63441558427087        3.25649594900448
H           -0.98331818269103        7.16526194489250        3.69255980642235
C           -3.06611113658029        6.97647892769466        3.27444128071655
H           -3.15859611709039        5.99521723104361        3.71437215474893
C           -4.20152848450136        7.57567160686664        2.73603134265862
C           -5.47814952366487        6.81873453226832        2.76983712878725
C           -4.09522663099982        8.83717963835744        2.15374619832288
H           -4.94987347093228        9.29403628571547        1.67933049034633
C           -2.87161775535103        9.47466514233990        2.10955352844203
H           -2.78504435712000       10.44142473894348        1.63837102129181
C            3.17314278866409        8.05809253724379        5.49737396473817
H            2.89021102780110        8.90977763745075        6.12683497589169
H            4.20988039965218        8.17229147897858        5.17160930159274
C            3.01225036424950        6.79954864019881        6.31132008497627
C            1.74883226684309        6.27031909374382        6.54831508197024
H            0.88353704939005        6.76589545267479        6.13495414801763
C            1.59295604195895        5.13476295776100        7.31993088656066
H            0.60288638426213        4.72906004167716        7.46293341616884
C            2.71110911715018        4.50427156449442        7.86388103815949
C            2.61201333884240        3.27664868389373        8.69193620310916
C            3.98070492811931        5.01969857379775        7.60800867565540
H            4.83466315807093        4.50965772682354        8.02816208668418
C            4.12827819206677        6.16177655193161        6.84655919141378
H            5.11247708388455        6.56353846690434        6.65573310427901
C            4.09031324156896        2.20343638194910        2.26614853071824
H            3.15918802504738        2.70741674168651        2.53436703512275
H            4.16011423348204        1.26870003579246        2.83200217997733
C            4.07149094655126        1.91391608533403        0.78715608318347
C            2.98491255566796        2.31557115424231        0.02056386073235
H            2.18662767787571        2.86505518140655        0.49475467564135
C            2.91791577452694        2.01098982299440       -1.32719997333006
H            2.04538662775688        2.29356170493823       -1.89024347566084
C            3.95518048207225        1.31295232062007       -1.93770397987310
C            3.96111236294369        0.93153372180254       -3.37532921834605
C            5.04827407117353        0.91168447274109       -1.16603726238151
H            5.82976811687854        0.34265674835092       -1.64762383900829
C            5.10793618248531        1.21121844986989        0.17986009815738
H            5.94591996514537        0.87820448870072        0.77500384077616
C            8.68811757979038        2.85924091771378        3.71704885609621
H            9.48415537516719        3.03530939874649        2.98860134989081
H            8.66939752552232        1.79240299241743        3.96968552121639
C            8.92816519356603        3.65264766376638        4.97758260377926
C           10.22664324469954        3.97712157490851        5.35648616687971
H           11.05497895115128        3.65749246738688        4.74337542168278
C           10.46899485749725        4.69440385455465        6.51244301104366
H           11.49136767856741        4.89417464653633        6.79424609590293
C            9.40434806227482        5.10352868535687        7.31442107681336
C            9.58457578029529        5.85640639777033        8.58102292271328
C            8.10457457355614        4.75882665254922        6.94600065176734
H            7.29264439760773        5.06180010016923        7.58951995684803
C            7.86907251811342        4.04408673483185        5.78988279339265
H            6.85712624218511        3.77214917114294        5.52760644642264
C            1.77476635981936        8.68602671374611       -3.33416905720287
H            0.97266661730846        9.42824082646384       -3.28775506738515
H            1.83369346435097        8.25862597564479       -4.34024595697640
C           -0.03765794341795        6.71683913904931        0.73106002739687
H           -0.75293797710866        7.53630322315558        0.81190075735709
H           -0.53666026987828        5.76360701009015        0.91936090004875
C            3.84636182952676        5.44769947808872        3.35732931973179
H            4.05270969914830        5.76509799636283        4.38501458693719
H            3.42509275511075        4.44226825088756        3.36321054458889
O            9.98481564748972        5.65960548347827        0.75802227385667
O            9.84997615626008       11.31461777013469        2.95385976287824
O            8.83539928700249       10.07113235094040       -2.51949313149442
O            8.66338789356411        4.85452494606312       -5.46900905103823
O            4.09192663870529        8.44723331093226       -4.94327702178219
O            3.60302481891485       13.67292915289411       -2.36640555271100
N            8.88615300634173        7.17233381207879        2.10102521522863
N            9.51471526789673        7.80882283811919        0.07804696143130
N            8.51375118156167        9.43748123523594        2.88181429074862
N            9.67648580830172       10.00729848861550        1.07985751087738
N            8.92290335326795        7.78801983400600       -2.23862997209928
N            7.31549050850277        8.64778513783105       -3.49151777401383
N            8.73722460013951        5.63417368621849       -3.30205376265503
N            7.31177146476561        6.55415457412769       -4.72143017616803
N            5.18604089533418        9.79369960052072       -3.43935588233257
N            3.05350775412289        9.30142955238491       -3.08866122729468
N            5.01754108390448       11.86223800144715       -2.20646566623921
N            2.82789275631711       11.51879249295509       -2.17717853910633
C            9.49490401004300        6.75632425647633        0.94303545258551
C            9.39637135882943       10.34057470312489        2.36113254189812
C            8.17611882831581        8.42912512897959        1.90479281275565
H            7.09638968888039        8.26988691525077        1.86996365968357
C            8.81477717982175        8.94413211697207        0.60016996359451
H            8.11224688667807        9.33716541601555       -0.14709655422820
C            8.39818014954321        8.94916662229617       -2.72502857466888
C            8.27909164441290        5.60567903944755       -4.58708770897891
C            8.07576023888381        6.64307918954909       -2.51920171253399
H            7.67099511376793        6.23134529702647       -1.58570659790591
C            7.01846586564121        7.23080523553162       -3.48371258321211
H            5.97912321667584        7.07320800885657       -3.17277696547920
C            4.11116593481440        9.11296545753463       -3.91975411999118
C            3.79590742651656       12.47136144449550       -2.26255723049108
C            4.90177391402193       10.43004779690705       -2.16155078071701
H            5.51152405193477        9.98348696183046       -1.36919582565763
C            3.37454978646972       10.19548776377666       -2.00451157209347
H            3.06758805054994        9.76642364641293       -1.04231126181812
C            7.62931555688857        9.79069224375731        3.96878884610618
H            7.42414712557190        8.89638924347823        4.56289215686109
H            8.16309363407723       10.51367392975260        4.59306115026326
C            6.30364284814812       10.36543601263366        3.52816056284987
C            6.00873863387783       10.63677621059611        2.19924242654143
H            6.76279128201826       10.54561872094959        1.43554494555414
C            4.73502975174210       11.01363731558696        1.82842360948255
H            4.48547390201642       11.16538177585434        0.79039352516957
C            3.74597220567975       11.20460717040362        2.78747245268456
C            2.38348086689167       11.52930193278763        2.31596586728124
C            4.05942735477673       11.01802821415900        4.13414924014852
H            3.30710904846882       11.14767233770644        4.89883090126285
C            5.31939063823717       10.58165582137888        4.49023030429639
H            5.54771765607872       10.39789973348532        5.52863087575495
C           10.70329597630341       10.63908594664134        0.29085573729005
H           10.31335613520412       10.80972486485875       -0.71727040904339
H           10.91170009611814       11.60677525861994        0.75890788999116
C           11.99462941507505        9.85656800877386        0.22329448617240
C           12.94394738415616       10.20881686474386       -0.73299969797965
H           12.73149854892050       11.01419752318790       -1.41913748109079
C           14.15402020690160        9.54834153147866       -0.80307126203350
H           14.89582066066443        9.82311876984515       -1.53550308174173
C           14.42004598715216        8.49632555249702        0.06949238159430
C           15.71021144778074        7.77333475657687        0.02695440421777
C           13.46519161820742        8.12602409375338        1.01188880840915
H           13.68454759700887        7.30729410337173        1.68003107337274
C           12.27183538316076        8.81550364795385        1.10055548560610
H           11.55609851321326        8.54196048314920        1.86026688662516
C            9.66135606495390        4.65832589682431       -2.76125099061609
H            9.43631718206904        4.52342978469884       -1.70122248244295
H            9.49063333059647        3.71888773006105       -3.29900157691382
C           11.11234182581290        5.03776704097319       -2.93799647549518
C           11.60039620348941        5.33363601199527       -4.20594493939007
H           10.93620810608236        5.26563771599193       -5.05380596692206
C           12.92388676096971        5.68592303729116       -4.38413996090189
H           13.27573979311551        5.93648950447650       -5.37347518007398
C           13.77780959171976        5.76394479978529       -3.28466893775392
C           15.19138804500860        6.18541436125865       -3.42818513115187
C           13.29203872563347        5.47294768522998       -2.01230659646502
H           13.96281667577938        5.53907161238155       -1.16851935719884
C           11.97342206702156        5.09382564300269       -1.84492864888451
H           11.60681711056963        4.85386970965792       -0.85767962667495
C            6.60979436289928        6.76869873615227       -5.96171898517339
H            6.65623722969988        5.82332674350677       -6.51485378906424
H            5.56702644861780        7.00586579958950       -5.74459299756423
C            7.21356591589973        7.85419243842846       -6.81674761632775
C            8.57203595519193        8.14341023305294       -6.76882636695983
H            9.20784792237084        7.60176483073633       -6.08558704842644
C            9.11866685527493        9.10757523253251       -7.59396470272253
H           10.17131609857245        9.33189730026516       -7.50949795024274
C            8.30435639727448        9.80828907645521       -8.48248780665495
C            8.83146430574723       10.85100435734305       -9.39471679114028
C            6.93512643239597        9.54345761992517       -8.50736502539957
H            6.31430443077164       10.10858827019015       -9.18532476933876
C            6.39807267652173        8.57208551862441       -7.68780448313249
H            5.33861672580796        8.36957494617014       -7.70779747622815
C            6.24995080852131       12.61065356055118       -2.05555519904451
H            7.07623696673856       12.02615690538402       -2.46031862541654
H            6.13091929459696       13.52722520737865       -2.64356934311149
C            6.56167339223344       12.99120344192949       -0.62672395890269
C            7.84890559639418       12.81813812455547       -0.13117216990848
H            8.61214744205135       12.42338481153430       -0.78367242695530
C            8.15806779277606       13.14455481627834        1.17692155694499
H            9.17014203491635       13.03249670151020        1.53113752590506
C            7.16552926992356       13.62794198373461        2.02556743631989
C            7.37731337537316       13.89940000882398        3.46948273412606
C            5.89260321200346       13.86734677837012        1.50920401326963
H            5.14663625536820       14.29213653024404        2.16327579793670
C            5.59513729193914       13.55860207067853        0.19804143503496
H            4.60907403036580       13.76145660303640       -0.18905665904277
C            1.43334995028537       11.84737828877214       -1.99006209645798
H            1.00255540554316       11.15304615700576       -1.26441007820968
H            1.40105012320300       12.85844273082884       -1.56654585304643
C            0.63732177194826       11.84239859279873       -3.26990804193839
C           -0.66528078692582       11.34970065392538       -3.27848963209629
H           -1.08160350838182       10.93721872087321       -2.37208008045166
C           -1.40842991116036       11.36841090585399       -4.44112583973700
C           -0.85825724020697       11.87851138739062       -5.61659818876080
C            0.44590276408824       12.37125036037566       -5.61135310721690
C            1.18212416078711       12.35322586011095       -4.44366957182749
H            2.18468323622374       12.75211632601888       -4.43199525015395
C            8.58491375062535        6.23974385586728        3.14749465343610
H            9.39215270335687        5.50687616234718        3.16190199056057
H            8.52945523175803        6.77448927446556        4.09883257584286
C            9.98981761720217        7.76169394887342       -1.27888574553812
H           10.56980429765561        6.84579974107297       -1.38583262179620
H           10.62704333798804        8.62577980784710       -1.48180455405510
C            6.47155383336198        9.66112096471986       -4.07291567988774
H            6.27104908481252        9.41613249183685       -5.12044292035703
H            7.02615029038402       10.59932470895812       -4.01133413068648
O           16.70117151583784        8.49326741423264       -0.46968135066937
H           -2.42022024852765       10.99358680818704       -4.46462402201392
H            0.86865344490664       12.76903282048515       -6.51986599682261
C           -1.67987798751066       11.88881375822666       -6.84185182479608
O           -1.07383150121016       12.41956755256654       -7.89588234728389
O           -2.81598642635704       11.45332245717279       -6.90408365357685
H           -1.64470419543257       12.41247080074559       -8.68807784542005
O           15.86382240501499        6.64439991925965        0.45738444983601
H           17.53404982702833        7.98852417752794       -0.52021412143845
O            6.62794742169598       14.62545319766768        4.09829554513845
O            8.37822476501430       13.30504294403037        4.10280796566598
H            8.93850018076081       12.67714660825105        3.57852715616510
O            1.98643997501473       11.19094995550027        1.21703869649280
O            1.57050207538879       12.19616820879672        3.13251872224632
H            1.99456243769485       12.50254329932263        3.95284105071959
O           -5.61175269773475        7.30864851281094        0.05559530823332
O           -5.50645356820003        5.60321499870015        2.77965099359728
O            8.14838314512575       11.76208624914663       -9.81520389756255
O           15.76741823391718        6.84648082492130       -2.59021123803766
O            4.78516291749021        0.14497123415085       -3.80927054671670
O            8.22359896383296        1.42858567890881       -4.55629305283586
O            8.73962391378589        5.87126247461018        9.45283076098447
O            3.50635052109632        2.45891304094418        8.75442294395155
O           15.83400609825143        5.81624489288988       -4.53582176366111
H           15.31437387219318        5.22876395011858       -5.11427967241154
O            1.49341495938408        3.08965384822233        9.39060896857426
H            0.86691909031496        3.83470155298002        9.34309265948507
O           10.71478357821716        6.53956927988218        8.74809149870701
H           11.30453973520502        6.52963503641250        7.97223569054941
O           -6.61088035294230        7.50603511143504        2.83996848953115
H           -6.47924219559609        8.47059247074638        2.81839180389872
O           -5.90612178392951        7.07382450666254       -2.11348756548045
H           -5.54838617063648        6.61657992939163       -2.89621488489263
O           10.10903702849624       10.75959673626413       -9.76683387186351
H           10.55292512870708        9.95363722004041       -9.44653207846341
O            3.07004156776908        1.44397693836098       -4.20965738280298
H            2.42074082793797        2.10517937334206       -3.87036990505721
O            8.10555915163016        1.62310916577581       -2.36913991690890
H            7.58273460831983        2.05034373346808       -1.67032553838092
I            5.17202401481482        6.73187935772694        0.47128032163259
O            3.83032296306610        5.59603510145593        0.31919380403971
O            5.02795927513317        7.60898757556362       -1.08772878775171
O            6.78080073946243        6.01572304431463        0.30476266016088
O            5.16221987147843        8.08164321331500        1.59981593606863
