185

O            7.55207944363768        6.11916261884923        3.35817476867863
O            7.14871738396264        4.44250794408197        1.78330759894468
O            0.37758855172355        5.65231475960096        8.10113022494448
O            5.72326008143268        5.00039899014735       10.70666524671965
O            0.40940329779006        5.99113339755762        3.65729682130061
O            2.32939105425097        4.71092588528046        0.77946682950188
O            0.98518416041694        4.02486295679283        9.66492576977489
O            9.44485342211218        7.91289061593982        4.28399366915841
O            3.22983272888253        2.21595835144288        9.18007054402396
O            4.02627730997773        6.27778647550938        1.17013303362031
O            7.08736524883316        8.70911970872390        9.47201550620311
O           -0.45554629656333        4.17031590020354        4.83882808461082
O           -1.59865809613570        7.33732116768043        7.16978994641146
O            8.24618897283710        3.81767457138961        9.74407853483020
O            5.96587613336435        7.86665168493619       -0.13038938118381
O            3.81729948142711        6.27399785535553       10.27301278345412
O           -1.87656715272468        7.51836851518030        4.36714200241053
O            1.65294459873307        7.52987431591389       11.66069752741819
O            0.32540554282035        8.12576046007517        1.90946005902843
O            7.44308983869374        6.49941502523058        7.79648882263984
O            2.44667663871827        8.31189021325427        0.08015206008182
C            0.11439570514046        6.10996900510674       10.45366821574834
H           -0.09616286241915        5.58065316823756       11.39987719648165
C            7.90410835860047        5.57625618681113        2.12217673994511
H            8.94204123594700        5.21366035898965        2.13551139535570
C            0.08799410865074        5.05178205034392        9.32824799792143
H           -0.89105912240441        4.55205249945558        9.29646811767902
O            8.47708218925876        7.79603719325033        1.18007010419695
O           -0.78475434114792        7.16852550115156       10.28343711968869
C            1.84577848358440        4.71158490451572        2.12176571808323
H            2.67476290832306        4.91467973940498        2.81459374069920
O            5.21693814064013        2.39010191152743        2.38204533724437
C            2.60881319703752        5.61870564212843       10.62874677590386
H            2.65349139264694        5.29226262328347       11.67762205167491
O            8.44638026842069        4.72930524787474        6.64333437970288
C            6.23602618360704        7.02898592395777        0.97210756904656
H            5.98195894530122        7.52390362010006        1.91828015612747
C            0.79288530514877        5.81517498677688        2.30561365477159
H           -0.08682753664887        5.57301991279593        1.69223081738860
C            0.35301049448926        4.38416564112862        5.98868625776413
H            1.29628698014657        4.87788525123773        5.70564607817528
C           -1.57162201455150        6.29820020651107        4.98188508260369
H           -2.50463453827827        5.76859995174660        5.24901403603051
C            8.35248570142160        5.80631014309153        4.48368350251459
H            9.29653747996476        5.34576410217152        4.15785697481209
C            1.52483286713172        6.70424341221656       10.52350058369774
H            1.70808921873831        7.26468504152072        9.59895427410829
C            1.36023870900844        7.16826206278166        1.85529537610206
H            2.17681029572992        7.43117198571723        2.53992604891075
C            5.73928751479075        4.64435211553822        1.76344585939457
H            5.37962872508047        4.89484486829879        2.77198221465816
O            1.47338068912193        2.30157837095443        5.65816804198583
C            7.71691094565445        6.63373979870008        1.01100476841077
H            7.97899681203634        6.14573639391649        0.05518513823389
C            6.20493754710183        5.04714256677294        9.36356666536976
H            5.35479825598350        5.09299577277369        8.66773333212540
O            4.99182957684598        8.46827795314645       11.44778513942635
O            9.61376995728457        8.17159137764810        7.09654075368557
C            6.26783624627824        7.56045181199144        9.55751520883003
H            5.39872808696708        7.65056178103234        8.89225798836895
O            0.02597919512397        3.15834848098505        1.80347417454960
C            2.35619289715004        4.40890095155608        9.70449089202031
H            2.69565358275376        4.68907168567088        8.69686994101959
C           -0.40065077457575        5.29015207579389        6.97663376726811
H           -1.31703765323022        4.77751683711194        7.30639020226278
C           -0.73708424160497        5.33545966733986        4.10345144157230
H           -1.33266600100823        4.97502175925003        3.25252606620064
C            2.94071625953151        5.91320499112370        0.37971767455140
H            3.25909436427400        5.71651062781172       -0.65575173640987
C            5.32073192596211        5.80044230567204        0.83455590330828
H            5.34052108558329        5.47308442751882       -0.21535387211630
C            8.66509912838196        7.14553060782768        5.17414270605068
H            7.70677689976938        7.63811924915187        5.38543640915948
C           -1.35868128575356        8.73356260539567        7.17251808208569
H           -0.31472610269702        8.94229079452433        7.42770611412689
H           -2.01680121576922        9.13692901349218        7.93753687099780
H           -1.58676895545565        9.16445949823374        6.19492743795869
C            1.91250228770892        7.06645140408187        0.42826140917384
H            1.08223418741488        6.80408501268983       -0.25025146420306
C            3.11360689260483        3.17873236145634       10.20244884482135
H            4.11019460328608        3.48219362100982       10.54750375586857
H            2.54640377526523        2.75566520539150       11.04538991613977
C           -0.79830339407683        6.59845432792620        6.27390802056320
H            0.12258964428955        7.14116187913351        6.02313754937375
C            4.93915810292910        6.10572567933450       11.07781317994221
H            4.64470979040869        5.90763855553362       12.11940040239584
C            5.15398869857562        3.30676309479973        1.31402764706955
H            4.11569195375949        3.44333107438405        0.98782591778040
H            5.76022699101007        2.93830265955350        0.47293557034943
C            5.97015264620730        9.25750109081443        0.15804778558770
H            5.14598693225280        9.50650093060335        0.83385210932461
H            5.83096951812227        9.74907411453015       -0.80124283226369
H            6.91967713384343        9.55415708031089        0.60692001471241
C            7.64428339238773        4.86962565843368        5.47618635908379
H            6.67492311988618        5.32340147662069        5.73382681898568
C            1.59491259676845        8.92363821099609       11.40625273637465
H            2.44716495437273        9.23221425678251       10.79352747726036
H            1.65032449699405        9.39234476663929       12.38527160261140
H            0.65909516932958        9.18523934740990       10.90690525434250
C            3.84457284750610        1.02675931136715        9.64965578095176
H            4.83470154048900        1.24195818827977       10.06416682065340
H            3.94130985551173        0.36892285417717        8.78992699999721
H            3.22548963548917        0.55465362950953       10.41888066990257
O            6.70192782705708        2.62909651063386        5.81918801557411
C            0.64568699677215        9.31164486026119        2.61225776349140
H            0.95553088807601        9.08314342673837        3.63763305677564
H           -0.26938536358221        9.89821360666315        2.62215324823704
H            1.44634776144366        9.85478487400351        2.10188690925820
C            6.84711157794337        9.53845864389162        8.34955036491247
H            6.89765028567861        8.97176046107601        7.41722031157867
H            7.63006849658201       10.29259497526593        8.37151298439226
H            5.85985341765451       10.00787752808227        8.42260988741670
C            9.42009686751777        6.92236770946172        6.49225360799503
H           10.39668370339102        6.46094581786624        6.25911311498101
C            0.65496494825594        3.00368012000758        6.56208270628792
H            1.15960500079287        3.10744410454443        7.52987831668339
H           -0.29469799743062        2.46350748131146        6.70177805542056
C            7.06146370463099        6.30698554796928        9.14703994833207
H            7.95874187013029        6.23290983672002        9.77979984911545
C            5.77863916293002        7.39470664434937       11.00582912813619
H            6.65526351721070        7.26648129065154       11.65762498451108
C            8.63865500634691        5.91542545034276        7.36857259377682
H            9.24390590403099        5.60505360845210        8.23197303922783
C            6.97710628313926        3.74857362872225        9.13665338490689
H            6.39556238967367        2.92735026189334        9.57951538009365
H            7.07849141758659        3.56261800241266        8.06162318712805
C            9.03661953010320        2.67567435600311        9.45534499422932
H            8.55908422783872        1.77029577930616        9.84185956594690
H            9.98829405823767        2.84010218471636        9.95319921608144
H            9.17879888836415        2.57765234521389        8.37460827665469
C           10.40814599231433        8.15847263445131        8.27420043827668
H            9.83491106791353        7.79857538607666        9.13225041452249
H           10.69323382423524        9.19456582287927        8.43910590175514
H           11.29858077281438        7.54019817846109        8.13141808728210
C            1.29107751136499        3.31662407597081        2.40231567184971
H            1.99423134486113        2.57786461859455        1.99086162232772
H            1.22766093826358        3.16953845861893        3.48671798436462
C            4.86622271790652        1.07442837992588        1.99191613909170
H            4.96043142383670        0.46321230938393        2.88544598417543
H            3.83653938678465        1.04125626596199        1.62059163837487
H            5.54504852699968        0.71207103872598        1.21381401148736
C            7.44315853878482        3.44513694335051        4.94117921659070
H            6.96760458087477        3.47962001914277        3.95604790758653
H            8.42310912481035        2.96551467867101        4.87087671269237
C           -2.69366259174266        7.42543412586128        3.20784026920525
H           -2.10267359683432        7.13402173524816        2.33633305155613
H           -3.09095793389699        8.42611747242052        3.05649374898522
H           -3.51023210676355        6.71622662865953        3.36878203407570
C            9.88423990152951        7.61832500838158        1.06950459401325
H           10.29983203868552        7.22272349270158        1.99884965017167
H           10.28513653429970        8.61193184886670        0.88498173534856
H           10.12251803514964        6.95677898217026        0.23244060193751
C           -2.15962123257272        6.81238262085177       10.35094722662946
H           -2.49813028238401        6.39039050262166        9.40191842086250
H           -2.68825368668142        7.74281424036946       10.54289142357949
H           -2.33410008860551        6.10659604964802       11.16742424206302
C            5.71776052007403        9.49427114372225       12.11957497870882
H            6.18319084543179        9.09520898605882       13.02533316140611
H            4.97571840051855       10.24458088306324       12.37863751268576
H            6.48281770266171        9.92190282505489       11.46970431091364
C            5.29922370602663        2.80552995317891        5.76704089983382
H            4.98384570795588        3.79487367930175        6.11994250802242
H            4.87802747158112        2.04926157733697        6.42525171794257
H            4.93159720125393        2.67356186239463        4.74476737690624
C            1.86605493765291        1.03722550424763        6.16661167700307
H            2.37526734029767        1.16238495134051        7.12573752660529
H            2.54383064217625        0.61726541837476        5.42861207411393
H            0.99240928195404        0.39000854737250        6.29531133083121
C            9.13253296955353        9.29571336785089        4.25810132192163
H            8.09503702388976        9.44688020516729        3.94378083660661
H            9.81037263640571        9.73002969512508        3.52832842953893
H            9.28443472439588        9.74222203615706        5.24308861692877
C            2.81245202443632        8.44491000319391       -1.28902122484880
H            3.75891126186723        7.93806950865963       -1.49140580808053
H            2.92630052265524        9.51374780776498       -1.45100269829120
H            2.02430006243649        8.04825087088279       -1.93464213608934
C           -0.60896709483895        1.95524979999707        2.20466601040661
H           -0.01047283295104        1.08759740071130        1.91101384588126
H           -1.56739449066600        1.94127490114932        1.69289446958171
H           -0.75247745828155        1.94947299937996        3.28940465866550
O            3.89701488175863        5.83665966477176        7.10388185202075
O            4.01413160507449        5.74044465325136        4.35133139921709
Re           3.89910374553520        6.77651909348604        5.69005297143774
O            5.23087137554817        7.82853383653830        5.69940891168519
O            2.48171038277902        7.70304362894618        5.61030868984159
