79

Br          12.44086994988402        5.58215183063260       -5.23533252931217
S            9.09369231520973        2.30605103249852       -8.11722748962299
S            9.41588545755085        2.44278452359743       -1.89072565110046
S           15.64787094204857        2.64165088243820       -1.87015688375442
S           15.78959803639291        8.85697460130548       -2.35504170577186
S           15.46771565420351        8.71869106767146       -8.58153645896102
S            9.23568425156915        8.52132571400009       -8.60327579163245
N            8.77714950053103        4.83257136800166       -7.30738760037281
N            8.82455311774971        3.35731764943262       -5.67576676204190
N           10.28649623921830        1.99332537383756       -4.37652985641700
N           11.87825624125804        2.07351059562303       -2.85970930150560
N           13.16756322571726        3.57492207394331       -1.52963999065044
N           14.71534720687890        5.13486362383997       -1.63974310088666
N           16.10515238027488        6.33025501237799       -3.16465320752481
N           16.05791914268083        7.80531844340981       -4.79643147522021
N           14.59681669367377        9.16977341029915       -6.09612825738099
N           13.00530663477832        9.08939235390859       -7.61321344482922
N           11.71590839802681        7.58732990472221       -8.94244805030768
N           10.16779905776841        6.02777578268309       -8.83167857898840
C            8.91909625782329        3.52836328437069       -7.00718188971855
C            8.72152707895785        5.65498194870557       -6.11185858926734
H            7.81293072743672        6.26208542786708       -6.11887077291448
H            9.58511614439537        6.32581398280726       -6.07339144424856
C            8.75201379402672        4.62722275798610       -4.97533620639665
H            9.63021527543820        4.75761494309150       -4.33577994562897
H            7.85923579001296        4.65545435652154       -4.34566455618574
C            8.99430660921294        2.11315559753891       -4.98491043088381
H            8.24892685711733        2.03702920268728       -4.18540712023473
H            8.86306063610365        1.31115561681386       -5.71991143162663
C           10.55439620611961        2.18856151719899       -3.07224887976988
C           11.50208684285900        1.87165818856770       -5.16145632421764
H           11.57903112586282        2.70103030992375       -5.87098727674297
H           11.48970618295392        0.93522508730881       -5.72462851345485
C           12.61083546475758        1.92563059109068       -4.10466654811466
H           13.21949713077118        1.01848996553896       -4.07325695583628
H           13.27438740033626        2.78212035060243       -4.25768571694662
C           12.53891214219959        2.28912040217717       -1.60627636341891
H           13.32228144031730        1.53452014422034       -1.47418553141190
H           11.78075982121787        2.20791179154496       -0.81933154175929
C           14.48137205040610        3.81093533216500       -1.70086874317252
C           12.40204791557102        4.80825198440120       -1.48859529650249
H           11.81081263145874        4.84979821225734       -0.57051503438836
H           11.71905354519724        4.85847100675667       -2.34202655128496
C           13.48044820311542        5.89482398866226       -1.56164702384812
H           13.36413446727674        6.52107413331586       -2.45130282092367
H           13.49729918680623        6.54384646030627       -0.68252349567324
C           15.98562319163942        5.76320068294565       -1.85371632844711
H           16.75618614189748        4.99604346982053       -1.71811201580116
H           16.11366298161540        6.57828742713547       -1.13277497775033
C           15.96359140308010        7.63447014981365       -3.46497748739374
C           16.16038635056280        5.50768612838317       -4.36008562831365
H           15.29660744365042        4.83708577660142       -4.39834401057533
H           17.06881211640563        4.90032473623652       -4.35312923130254
C           16.12998872331062        6.53531300830722       -5.49672331097383
H           17.02263878089630        6.50675826540749       -6.12656241066239
H           15.25162937947463        6.40508529154360       -6.13609853388128
C           15.88881731648383        9.04948411468396       -5.48744459213604
H           16.02022376212301        9.85150521861486       -4.75249989600907
H           16.63440789691828        9.12522277712667       -6.28679364722076
C           14.32908272798196        8.97394081585467       -7.40035835265890
C           13.38111797059991        9.29224115826000       -5.31148840115026
H           13.39372744878367       10.22894733121977       -4.74877632212693
H           13.30374747196165        8.46324288035408       -4.60156392773425
C           12.27255040838750        9.23817744561319       -6.36846724903297
H           11.60861537945617        8.38203745221062       -6.21515635273235
H           11.66427186171877       10.14555525291598       -6.40045329802983
C           12.34479685308863        8.87306307847291       -8.86660030493535
H           11.56159936709899        9.62772738975519       -8.99932817109281
H           13.10308445659445        8.95358598019518       -9.65348717728935
C           10.40200282952530        7.35169587050610       -8.77142978468758
C           12.48118910528230        6.35382079541698       -8.98249669233506
H           13.16396996022753        6.30402523017846       -8.12886878116624
H           13.07263087228725        6.31154549759463       -9.90041348736551
C           11.40255888615719        5.26751549443475       -8.90896551591781
H           11.38578379856522        4.61786452460934       -9.78762578823329
H           11.51854073839272        4.64187162945001       -8.01883811328519
C            8.89726354376757        5.39978303326949       -8.61819672349507
H            8.76921323349127        4.58482782966598       -9.33929422812395
H            8.12697703462856        6.16718415259403       -8.75394858118791
