161

S           -4.52192945769716        8.20548312156531        6.14698419264424
S            1.31390830981896        7.86834221913121        4.24157167144968
S            2.62308034202642        1.33243840665379        7.00490946601889
O           -5.12807954065908        7.39571246102093        5.11889489134958
O           -4.43520470912294        9.61471264971756        5.82792151582503
O           -3.97401002843699        4.90926909757417        5.31575470914684
O            0.42769955844730        4.79719230498447        4.23258225391625
O            1.57094878237425        9.28760583002301        4.19481908363496
O            0.75012929681662        7.32318905475774        3.02325037675562
O            1.30518557732016       10.15263502977436        6.79176970594619
O           -3.01644569327549       10.14368752883404        8.19870655878914
O           -3.47847270897832        2.60142137272627        7.39898427955987
O            2.01483380004051        0.25685452070377        6.25031895739971
O            3.62774734896707        0.90102137747919        7.94661497109628
O            0.32561483821968        2.07292962201020        4.98385043671654
N           -1.86061272818014        4.65597395732088        4.44743267724194
N           -0.84160474029263       10.50882369663428        7.54332678950092
N           -1.77482151312405        2.18980589617442        5.91575606943063
C           -2.77171065654652        7.68770106206694        6.27969424119832
C           -2.23532438105874        6.58891978546753        5.62662133824361
C           -2.86000488389682        5.32524848577560        5.13778033819434
C           -0.63028686816987        5.26761768641373        4.57060973482588
C           -0.88728775256370        6.55709789581471        5.25555549041698
C           -0.02334278460877        7.61990342411197        5.46302671195645
C            2.79819605793936        6.96892392966308        4.73107985135361
H            2.52798867044027        5.91912198551125        4.68343369816834
H            3.53169649731716        7.21309992683095        3.96597316130096
C            3.20798909958766        7.44341505382496        6.10617752323037
H            2.57567039438041        7.00511896862803        6.87515003862448
H            3.11925933540800        8.52700720532696        6.15598231747076
H            4.23751554204217        7.16634289418995        6.31185495360913
C           -0.51314144751451        8.62008050222967        6.28734070603926
C            0.14679920952506        9.82935710567475        6.85588545779746
C           -2.04644804235975        9.82700284529949        7.55977527472729
C           -1.84860177872532        8.63295175863071        6.70078835800646
C           -0.65676731839062       11.73018521783718        8.31482926713876
H           -1.52132075063618       11.77288848552031        8.98607691533248
C           -0.64923511304946       12.97016303851951        7.41923907784042
H            0.22145626339374       12.93699867844935        6.76196267083033
H           -1.54835781050096       12.96984814037259        6.80090224824499
C           -0.61093052624209       14.21826154589673        8.29923484819205
H           -1.52063343510957       14.25649651247286        8.90067246385819
H           -0.58442411952382       15.10661571338557        7.66750856345128
C           -2.03755914474817        3.38266602572162        3.76443541526780
H           -1.03881036676508        3.09869969420338        3.41671277480432
C           -2.57688048607556        2.29836682186514        4.70577032069080
H           -3.58058328204039        2.57611278410429        5.04529293882842
C           -2.33215676444781        2.31094335978979        7.18034030165441
C           -1.20875936731160        2.10921610072084        8.13388994085163
C           -0.02583559340804        2.08014771228608        7.38628410554083
C            1.22748454376711        2.01019294206108        7.97129132489176
C            3.27846384257834        2.63006076000831        5.93619614259130
H            4.08903282989505        2.16039824047751        5.38388776953856
H            2.46969141813537        2.90263824221456        5.26531806695482
C            3.75643113746237        3.75503496333579        6.82423964953645
H            4.36457484950494        3.34441163508203        7.62749704793486
H            2.92184907943372        4.29099350496020        7.27159152859030
H            4.35030524259129        4.45958225849104        6.24984906544340
C           -0.39926673282348        2.10372744762903        5.94661439552924
C           -2.62752815629606        0.96361978302155        3.95977572204578
H           -1.61868894073721        0.69235837019479        3.64392727955244
H           -2.99553733865025        0.19064572628542        4.63634627962030
C           -3.54741970910920        1.09093504947047        2.74809268549232
H           -4.55965568886576        1.31425900817504        3.08878561712473
H           -3.57029931696354        0.14256744973565        2.21063178870935
C           -3.06549627637835        2.20221457133578        1.82056035317355
H           -2.07925987731289        1.94810988744817        1.42863668742862
H           -3.75034514918998        2.30572083158945        0.97848957122016
C           -2.98186574085236        3.52969531457669        2.57003773746540
H           -2.60490988628948        4.31527223976797        1.91293091865228
H           -3.96932116668696        3.82555808877846        2.92762538542590
C           -5.32704987125877        7.92813429332905        7.73790443046141
H           -4.83423882214478        8.60159003325593        8.43218652504504
H           -6.36557276008415        8.21545187372802        7.59452417585381
C           -5.17000900084238        6.46408907524795        8.07490921849634
H           -5.78493543710880        6.20011431215703        8.93090154831746
H           -4.13252533885678        6.22935254675966        8.29997752613824
H           -5.47572396928703        5.85982559944103        7.22341958443957
S            4.47668746972857        8.10602741212888       11.17394912821027
S           -1.37424853299648        7.83454310456678       13.16945044542940
S           -2.57880702873950        1.22831018519297       10.45221464453101
O            5.09660759746586        7.30869257428484       12.20353987663744
O            4.42663599533000        9.52272638530460       11.46994332165523
O            3.92203200805364        4.86045657532383       12.10948386208535
O           -0.46505616916720        4.77111585152578       13.24905110851897
O           -1.65255354925400        9.24900288068634       13.22362262279851
O           -0.85255587204349        7.28376728585112       14.40313461279383
O           -1.33210140837703       10.15229952578774       10.66184035257286
O            2.95880161707179       10.06625084550298        9.17313936881519
O            3.50800377487786        2.58679929395366       10.11621257626298
O           -1.96897756659359        0.14296228598718       11.19026017327527
O           -3.57211009201494        0.80845812082309        9.49270228684889
O           -0.30790151594553        1.96758668496693       12.49767551916195
N            1.81757493368597        4.62596829466491       13.00164343488398
N            0.80767870846802       10.47272805856353        9.88241665003658
N            1.79432733777540        2.14449292814147       11.57984044210039
C            2.71431387944847        7.61789952389033       11.10121410717554
C            2.17940217792408        6.53466069482796       11.78082843956574
C            2.80985947761052        5.28097312108096       12.28820994983089
C            0.58446718591656        5.23943716020270       12.88740663788729
C            0.83783025104051        6.51981576654018       12.17933561945115
C           -0.01418121524441        7.59358625511257       11.97692419910824
C           -2.80644835822846        6.91656263188215       12.57821811777450
H           -2.50897060397440        5.87363736960308       12.62250004029030
H           -3.60850851678880        7.12372724650290       13.28229780115291
C           -3.10987840384669        7.41392213274917       11.18394376965497
H           -2.31839243565759        7.13035857753717       10.49173464066419
H           -3.17293575228110        8.50023954112416       11.19161062761432
H           -4.05022565182526        7.00538584197598       10.82667819055993
C            0.46891914994377        8.58317603935879       11.13626752914004
C           -0.18287946217052        9.80489581934202       10.58079493145498
C            1.99847475864898        9.76800548954520        9.83508304835068
C            1.79600521704515        8.57446366748324       10.69508125113557
C            0.63421570704341       11.71379885332591        9.13991295631105
H            1.49989271647581       11.76524757440360        8.47077565471181
C            0.63665188012008       12.93096819901749       10.06637490805791
H           -0.23396822650061       12.88745005930216       10.72309823338024
H            1.53603189618654       12.90830234961679       10.68395183933563
C            0.60738777345911       14.20172074903449        9.21892639795232
H            1.51738691472675       14.24909363713269        8.61855334606503
H            0.58736523223767       15.07344509659283        9.87367989416996
C            2.00401920805454        3.36863556329481       13.71239800633878
H            1.00405112651822        3.07577836004534       14.04916354489485
C            2.57576573465395        2.27446544021557       12.80109898281816
H            3.58261531720275        2.55728816101077       12.47564268831561
C            2.36062766469953        2.29225081465795       10.31964630945718
C            1.24089046610105        2.11163493784055        9.35507723383348
C            0.05798199004724        2.03163603000050       10.09852501589574
C           -1.19255849987970        1.95372064162386        9.51072370952219
C           -3.25254376691181        2.51213530701544       11.52576529416279
H           -4.18244681883578        2.10943329991191       11.91859594550142
H           -2.52554687985761        2.66386527910418       12.31712315086227
C           -3.46606533262203        3.72813427833727       10.65354377478682
H           -3.96871574062492        3.42957524997572        9.73504160383485
H           -2.51024939821019        4.18324281313435       10.39779898612096
H           -4.07697570190938        4.46141171854860       11.17122355653171
C            0.42083081844229        2.03006303498418       11.53960021931478
C            2.62701198016140        0.95419615197674       13.57136634376580
H            1.61566820208387        0.67590337152636       13.87235487325155
H            3.01819605061150        0.17391553413272       12.91657679924809
C            3.52116376121118        1.11578406468910       14.79836292925082
H            4.53741988868361        1.34453481196114       14.47351050777016
H            3.54420902996062        0.17824119274117       15.35449254584542
C            3.00885533592658        2.23871704884978       15.69522857961703
H            2.01787485355898        1.98082590809624       16.07258151054061
H            3.67562111538230        2.36553966194442       16.54854459602983
C            2.92451122778491        3.55140558741612       14.91998130519477
H            2.52591787007157        4.34402222937884       15.55551792791331
H            3.91476629339610        3.85273858635819       14.57461093379983
C            5.21474481276590        7.76962105709494        9.56427336609697
H            4.76281277013733        8.48258040367974        8.88214938975975
H            6.27784617372657        7.96368673228544        9.68163461650868
C            4.91803978607664        6.32490315749408        9.23487429564116
H            5.50147230797870        6.00178843028603        8.37811047410505
H            3.86292160557392        6.18197444641733        9.00994481552306
H            5.17547652542386        5.69817717575140       10.08610699561295
Cl           0.06287674807409        5.67271217499607        8.72073353887652
O           -0.50289176389066        6.97979986210801        8.84114890764062
O            1.45938991877726        5.78696381912444        8.46922684375748
O           -0.56148407093459        4.97743793908075        7.63862460511618
O           -0.14064060682019        4.94967859845517        9.93631973168644
