391

O            3.40364574725824        4.20249308739507       12.00244742696503
O            8.92399959257557        6.23082089872191       10.22435559430686
O            4.88667094372464        3.90593377508933        6.64336935052613
O           -0.92760016427254        2.94380779817887        7.74536649064065
O            1.21736097319363        7.27599725952962        4.09339429043014
O            7.05444736501856        8.57056600564913        3.44487134424319
N            4.79631999069885        6.02662287205630       11.83322776413616
N            4.69416796387584        4.58971458600867       10.14577382163847
N            6.89448407281254        6.96231587069836       11.04230505008430
N            6.92904380139415        5.32729240816417        9.53883835446059
N            3.27518368223322        4.08463179871979        8.26570948945125
N            2.81491248156270        4.81433500355480        6.22328540356067
N            0.93473523841279        3.82844513751432        8.77386294055366
N            0.46620212395012        4.43383566627010        6.69102621532167
N            3.30065081091169        6.76186040838459        4.90348265711901
N            2.77002938336018        8.89260289284725        4.59979199768346
N            5.66009125807167        7.29170007350090        4.75697004956810
N            5.12774094023071        9.41015734683919        4.37353212489215
C            4.20541200030820        4.87872021890111       11.38907558411664
C            7.71428973086953        6.17428991429291       10.27113865924061
C            5.50924491946303        6.71702754368444       10.76891949421856
H            4.97779881207551        7.63952967385304       10.49085095056228
C            5.53254586618650        5.65059647191132        9.64349783126475
H            5.14104100917149        6.01737205587208        8.68140423860643
C            3.77747523060699        4.24633009952883        7.00447437754667
C            0.05632012379084        3.65201152389872        7.73457685503826
C            1.99202312660809        4.73596315239529        8.43507150068318
H            2.07083872320727        5.56397398825046        9.15508263777811
C            1.64930599513309        5.18987227356869        6.99398997090954
H            1.46441485041566        6.27002741680470        6.89814032043733
C            2.31560966667173        7.60743547982345        4.49928873187517
C            6.04848809934573        8.43229029436795        4.11030309147426
C            4.43134772604942        7.46506103942957        5.47275781676676
H            4.54395849567322        7.20308166369895        6.53639783675268
C            4.07054408896847        8.95465759127425        5.23104475114396
H            4.01658452907664        9.55701636267529        6.15035757149826
C            7.39857106894595        8.10330755254720       11.77959712696374
H            7.84951189850368        8.83001541718594       11.09271727372692
C            8.46858496588526        7.64799392278468       12.79108864733867
H            6.56761950044309        8.58294529874518       12.29764995610709
C            3.10738698936270        5.33739093032838        4.91193890237614
H            4.00815194286841        4.83782755650068        4.54524347678907
H            2.26797569567087        5.14763554110972        4.23866153125435
C            4.09437393239479        3.56829231471319        9.32344825521047
H            3.49854213485761        2.94813708523961        9.99865023959397
H            4.87174733941027        2.97534521690417        8.83289833068448
C            4.47616591437003        6.56681606927026       13.12480990653893
H            5.36429360588320        7.02455890792911       13.56896968552880
H            4.14345581825603        5.71765516485155       13.72911621164644
C            7.48648389279470        4.20078579439245        8.82854077335265
H            6.87679523978399        3.99907213535792        7.94510942991214
C            7.60239080754069        2.92578643609280        9.69162963500913
H            8.49455907348185        4.49693202680288        8.52788473881214
C            0.64897400552657        3.37569016980508       10.11800670171579
H           -0.35273318737272        3.71112218995873       10.41116748341317
H            1.38660125049608        3.81931514734091       10.78827482892729
C            0.67190324569770        1.83673185659902       10.22496615114521
C           -0.18262723539306        4.40463513331855        5.40303236193906
C            0.23935024498031        3.17428148287415        4.58799328002634
H            0.06326514807144        5.31718805048936        4.85750696587664
H           -1.26257473965571        4.36642926461808        5.56409557039655
C            6.50497573771527        6.11862548784916        4.83717443200998
C            6.72553257876734        5.46457131905358        3.47246892999601
H            6.04447103681021        5.40609070932904        5.52165243696467
H            7.48688496233401        6.41258743551780        5.22412492932576
C            5.22690157700246       10.73236927364057        3.80237577009756
H            6.26344737420815       11.07013146041010        3.88548006781298
H            4.58694015594246       11.41496725107080        4.36321792231772
C            4.83809578532025       10.72690699160019        2.31795015961543
O            2.91985545387736       12.28013808751972        5.78762952179525
O           -2.90402460731278       10.71286096578861        6.78353641532053
O            0.98802423341465       12.35092021711854       10.98921078889711
O            6.77909144569469       13.81466803572336       10.21793992997615
O            4.88991506223043        9.31980337217214       13.59657969031861
O           -0.90638637136013        7.64699948436119       14.25323555800901
N            1.40216487684181       10.55968515486044        5.68374966080885
N            1.39334740873419       11.88782253592834        7.45813861885849
N           -0.87259183433930        9.85676433702835        6.13634200816105
N           -0.93346711350542       11.28996403838928        7.82822422060913
N            2.68485123620028       12.36345051092616        9.44630731923730
N            3.11448108073507       11.63766150236765       11.49657614126105
N            5.02945128426049       12.84192255751540        9.08288850453614
N            5.45076583965899       12.19401240385582       11.16110315089395
N            2.75591412468710        9.67558093260091       12.83412576049385
N            3.46183824563160        7.58996039271202       13.10348168075518
N            0.44694945147815        9.00548988125920       12.99575993621219
N            1.14842431220863        6.94178376049770       13.48598013787313
C            2.00708507276122       11.63400423571472        6.26666499433782
C           -1.70104566575082       10.64172965112958        6.89835611999538
C            0.48451816252935        9.89487381837229        6.59006639871302
H            0.85964266308940        8.88931224392316        6.83599495376711
C            0.43650642804612       10.85893131429911        7.80408917385263
H            0.72284049312908       10.38877061894445        8.75751539090833
C            2.14148993824243       12.12760866500120       10.67620645291870
C            5.84742888298121       13.04027024572297       10.16383104103537
C            4.03263020631845       11.84225292621286        9.33099139923474
H            4.06503373501424       11.03975165251905        8.57867785374113
C            4.34171147657246       11.36879589109293       10.77586485173293
H            4.59642696423135       10.30058050748802       10.85069509974621
C            3.81012949367552        8.90983331712840       13.21109081004346
C            0.12577775222235        7.84930723654080       13.64668118221599
C            1.67773383697158        8.88858549697100       12.27758560997299
H            1.54962251804117        9.12129293638354       11.20849689701133
C            2.13320369615747        7.42911884341576       12.55297462195042
H            2.17200255627153        6.79709492015633       11.65184875979765
C           -1.39394551026322        8.95026485494171        5.13735167403385
H           -2.22615301228984        8.38249519493490        5.56603992613268
C           -1.92384276770742        9.72736522214019        3.91464185844777
H           -0.60431392423062        8.25694813692362        4.84682779806621
C            2.81675911940695       11.11092761082977       12.80576079149721
H            1.85223221288818       11.52523837169789       13.11720222486873
H            3.60061405546463       11.39881069668296       13.51014084913661
C            1.89100882461941       12.88623237368189        8.36826293231506
H            2.48763390096700       13.57664943471377        7.76715505075320
H            1.05158246195726       13.40531070772741        8.83782343416410
C            1.88306343688276       10.01545235066495        4.44227849954332
H            1.04112806976278        9.65774206246799        3.84386705298150
H            2.40139047519932       10.83251829086103        3.93361185723667
C           -1.48642158325948       12.20438261215848        8.79969550729348
H           -0.86078601323371       12.17812733318142        9.69346732334624
C           -1.59879337605556       13.64258107992770        8.27224629919444
H           -2.49817207815776       11.86498194757689        9.03562249091005
C            5.28308051812198       13.46874621362478        7.80382391911191
H            6.32437755934532       13.29243649456382        7.51497393180163
H            4.63016962994039       13.01428220130152        7.05802530590076
C            5.05594849206850       14.99291840443338        7.88224903224672
C            6.10185140965655       12.16732315993328       12.45103870770013
C            5.70902036184901       13.40355336535456       13.28694019128427
H            5.83151914606375       11.23918250013178       12.95475471696251
H            7.18402079088499       12.18475518225540       12.29431662121893
C           -0.54185009777440       10.03931354912470       12.76919181818088
C           -0.90307018202711       10.81837465675912       14.04041023878593
H           -0.15416198146659       10.73198598993418       12.02087199981079
H           -1.45859319257754        9.56868570516670       12.39552697084121
C            0.86750175047681        5.53570520461555       13.70394928869398
H           -0.20168642683108        5.47723122276920       13.92594129959665
H            1.08824525046539        4.98139858892647       12.78707095224774
C            1.63250390314147        4.85430143656474       14.84870647866057
H            7.43699233401047        4.63499447029314        3.59535330663121
H            7.16012570045914        6.20434288989434        2.78703419790337
O            5.50315494240890        4.98198904914845        2.95200124707070
C            5.66306772415558        4.39137852032195        1.68185748025235
H            6.26496062554258        3.47425722973346        1.75716611002399
H            6.17959788197688        5.08299463378772        1.00103397055995
C            4.29473612838164        4.05198444012836        1.09451184528984
H            3.76309019113763        3.35115275100824        1.75444186510232
O            4.51697131955274        3.47893983546002       -0.17334933332316
H            3.69202529924297        4.96774152223469        1.01153388372174
C            3.34355151675171        3.28499089508792       -0.93531390234689
H            2.65284108369760        2.58820223476939       -0.43923724295265
C            3.78092443130287        2.72843173285200       -2.28773299044905
H            2.81881066619425        4.24039823510791       -1.08409896836418
H            4.23869928579669        1.73876213058999       -2.14582272604932
H            4.54196373639881        3.39845319850043       -2.71426103314520
O            2.66623377877167        2.64088514367892       -3.14426277954918
C            3.01308826272542        2.21407718493704       -4.44419471094297
H            3.46054192897503        1.21345148382305       -4.42297039814833
H            3.72198204187612        2.90859340512689       -4.90862867102924
H            2.08923957332722        2.19599848685799       -5.01822617035023
H            5.56065242660715       10.10988122875225        1.76310493741177
O            4.85029803504996       12.05067676403711        1.83822759318085
H            3.83959015442937       10.28002240182797        2.18709246206866
C            4.52081075977709       12.13599995171734        0.46904643733071
H            5.19373252616100       11.50572847062863       -0.13021420590420
C            4.64969737029998       13.59053793368144        0.02478409956552
H            3.48979290031734       11.79308145648669        0.29632984888147
H            5.69656420427563       13.91291713489927        0.12090919879977
H            4.03536366871638       14.22649725786272        0.67761144370122
O            4.21870263251089       13.68794994318244       -1.31310258989754
C            4.34174553046576       14.99761436542556       -1.83352902942873
H            5.39831320808410       15.30065128947024       -1.86774422605305
H            3.80070505413364       15.71989993842104       -1.20773812701324
C            3.76393106055592       14.99962295567372       -3.24572873380160
H            4.31347541619331       14.27503261349854       -3.86544550273289
O            3.87506898227968       16.29709965171631       -3.78233931072059
H            2.71063799604238       14.68423296888066       -3.20819898259946
C            3.37414562037539       16.38766558716355       -5.09728605143564
H            3.92706343788221       15.72838937277555       -5.77697762244038
H            3.50392092720120       17.42305386642290       -5.40415393747439
H            2.31118072633192       16.12098721020321       -5.13447087281504
O            5.19348029043902       15.64195911500661        6.64296726606778
H            5.82420254805751       15.41980117975544        8.53153586656132
H            4.06829025374226       15.19785398028615        8.32094393179539
C            4.05759611765651       15.55626745294003        5.80285314386158
H            3.19121679938528       16.03137088536221        6.28756319004963
H            3.79851549272849       14.51755636028207        5.56829470445101
C            4.37817101116993       16.29678506518005        4.50794466633205
H            4.68161473996793       17.32821228004141        4.74085744892478
O            3.22944533807897       16.28950912128812        3.69005175171067
H            5.21715193370449       15.79748050281141        4.00388711194978
C            3.46478648784754       16.85302119422964        2.41916996030029
H            3.75886650339388       17.90886161151306        2.50940635007813
C            2.18533884079134       16.74019000503826        1.59511185351859
H            4.27598559113614       16.31782917775750        1.90389304376644
H            1.39774376536504       17.36141126138174        2.04559159072580
H            1.84145913320930       15.69466962035137        1.60692663161336
O            2.46002714180337       17.16114841148957        0.27933955607199
C            1.31920793295116       17.15132917274396       -0.55077151918728
H            0.55454496341829       17.84182360069588       -0.17653995199056
H            0.88719448088596       16.14566355535687       -0.61434256385396
H            1.65703719551178       17.47014577278513       -1.53421314366473
H            6.10648193102400       14.29077633037987       12.78658241301361
O            6.26171594491914       13.42010065752650       14.57814087203619
H            4.61235387402055       13.48420606097121       13.33261518384876
C            5.61624336902840       12.58790714245602       15.52157130554603
H            4.53920619899637       12.81230099461966       15.55517110760401
C            6.23903121993578       12.88398658293164       16.88347335047639
H            5.74170373245896       11.52452509363454       15.28189805026565
H            6.23059948841236       13.97124038090404       17.04873332793258
H            7.27808821083536       12.53222930335309       16.89049382215891
O            5.49373493923803       12.22895465834710       17.88947019496558
C            6.01630649481848       12.46769083578275       19.18040500184538
H            5.88978143036904       13.52552981689275       19.45582664569540
H            7.08862725416801       12.23457761395642       19.20554021420160
C            5.27242701990135       11.59455547920338       20.18716089269392
H            4.18804132724910       11.73102259445315       20.05777319901751
O            5.66548616988312       11.97953719812996       21.48611225831963
H            5.51188143664214       10.53665646209155       20.01244458211049
C            5.06529699205177       11.19114733491347       22.48852039951738
H            3.97207915863496       11.26668164998476       22.44797152182766
H            5.42496485419155       11.57713269652762       23.43975831620127
H            5.35162486621951       10.13800381275269       22.38411021108959
H            9.32545278414760        7.26639187548599       12.23101642678128
H            8.05295768375786        6.83675785417809       13.40603715668586
O            8.96792716995922        8.68605059120573       13.59401051924891
C            8.19121065181323        8.98680568259425       14.73677262800883
H            7.94729692181657        8.05127962517757       15.26131069430423
H            7.25369948066007        9.49287330580744       14.47207818730431
C            9.04856329244741        9.88867635585293       15.63423089199848
H            9.95321688005729        9.33262107641756       15.91923904962526
O            8.39698055613982       10.39025930531581       16.77456551673783
H            9.34512902179899       10.76810478239929       15.05863092389426
C            8.05960941975443        9.44573462135682       17.76988687239015
H            8.73766916098598        8.58553953799697       17.73687037434989
C            6.60036721620881        8.98102532949633       17.68437060811391
H            8.18598868597923        9.94898428812642       18.73407508774266
H            6.44482271744611        8.29900968264750       16.83630462882282
H            5.95213001047594        9.85643902806900       17.53534544187671
O            6.27958190420477        8.32552336619196       18.89432494160755
C            4.99567661262402        7.74371642529921       18.87299971534538
H            4.95123160082111        6.92942729085017       18.13922837770707
H            4.22565220918226        8.47925260999820       18.61589867753186
H            4.81937081350912        7.34658011381252       19.87055642129189
H            8.04042150856012        2.14406790770935        9.06337584609236
H            6.61761954538638        2.59644504185253       10.03982732809321
O            8.47400118440835        3.07104602664155       10.79595265733633
C            7.84779122204964        3.41430644266672       12.01371971181135
H            7.31810035198232        2.54201500528894       12.42766505081747
H            7.11932277824476        4.22335423563101       11.88986198659882
C            8.92330643214770        3.88095043921979       12.99115673482749
H            9.60635734692786        3.05029401630415       13.21635178126932
O            8.28799722844012        4.33353988326337       14.16841865089781
H            9.50231891261766        4.68714176292886       12.51963957056783
C            9.20162825844615        4.70061423599188       15.18199518752287
H            9.89453364732564        3.87420847471221       15.39370443896345
C            8.41224804897069        5.02680782856496       16.44811848513083
H            9.79621988393773        5.57262993394929       14.87441700042316
H            7.81140327478472        4.15011493585088       16.73270494768349
H            7.71869020305387        5.85924824041730       16.25054724982919
O            9.31660634791197        5.36492239575128       17.47056885168515
C            8.68892161699388        5.55234461395761       18.72303772917693
H            8.18010837973560        4.63654390692667       19.04542343907307
H            7.96225309461803        6.37167870325834       18.69107179967905
H            9.48199829791495        5.79761722698482       19.42558631190991
O           -0.25680287305301        3.31432810685778        3.27760360172418
H           -0.16649255863474        2.26695690655411        5.06043389644344
H            1.33693639675174        3.08882579661891        4.57580999784400
C            0.19948887584282        2.30490572604629        2.40550605136330
H           -0.00201720876055        1.30874824282774        2.82479304525430
H            1.28440015195665        2.39462132744069        2.24424502282617
C           -0.52545637437236        2.45918150288491        1.07123574310000
H           -1.59220794466985        2.23476158724591        1.20942990509654
O            0.05212413460335        1.57583119530785        0.13772556934410
H           -0.43598010432915        3.50013843669900        0.72975374260623
C           -0.72100917426169        1.44595518238628       -1.04058849316981
H           -1.68208764781089        0.96121840192577       -0.81299184200355
C            0.05609400825139        0.58047728531126       -2.02721617817536
H           -0.93044832363777        2.42784020603771       -1.48214992251545
H            0.39160581766231       -0.33239644546931       -1.51103701731931
H            0.94123603941911        1.12763162776238       -2.38013694591111
O           -0.79127170982267        0.25244287376974       -3.10654206899398
C           -0.15838334400359       -0.56955608782343       -4.06023454255114
H            0.14194430659618       -1.52788787164235       -3.61859487150770
H            0.72927624360868       -0.07893666916847       -4.47522706244179
H           -0.88673197517037       -0.74331175370234       -4.84940648156573
H            0.00744045991323        1.43552711894570        9.45621232205913
O            0.15500700725773        1.37214512862350       11.44687483797826
H            1.68995411203349        1.45740646834171       10.05980633344152
C            1.03092709940825        1.48346644380176       12.55486605686059
H            1.87957752082132        0.79500737656462       12.43828599606716
C            0.22856059336893        1.13617587766894       13.80785474155289
H            1.42936686358997        2.49835809420204       12.66291469553113
H            0.03300569694279        0.05555611492689       13.84644500454249
H           -0.73929421868635        1.65578411557500       13.75550818469321
O            0.95079484900795        1.55121853264425       14.94599311881510
C            0.27345519849786        1.27460363134876       16.15461273657341
H            0.18604924481934        0.18930985696156       16.30791185956358
H           -0.73958634207134        1.70028867832092       16.13590671042952
C            1.06311927994471        1.89091218747214       17.30601557882025
H            2.10022325698752        1.52452047980796       17.27047089123602
O            0.44775457899816        1.52040898841504       18.52017806426082
H            1.08018154153015        2.98464343466031       17.19742534408211
C            1.05891946531501        2.11738154718343       19.64176758143104
H            2.10932302736173        1.81398686932588       19.72663333502351
H            0.50561071652774        1.77235750866296       20.51246945307178
H            1.01084183635162        3.21066001474958       19.57975799990046
H            2.70619942616631        4.83936788380124       14.63361943654962
H            1.29003793676671        3.81584246518675       14.89185798092113
O            1.39138184686971        5.39242793464628       16.12835716178667
C            2.14234712529672        6.54759357880222       16.45082536328559
H            2.63405278482538        6.96640575626379       15.56923692095722
H            2.91429573956154        6.27466662863464       17.18268800048332
C            1.24988611100071        7.64107353375451       17.03849687510226
H            0.35168663924287        7.75113610149143       16.41484569715950
O            2.00286746165107        8.83567251498408       17.04984943151820
H            0.93076545201648        7.37403174629416       18.05580552556906
C            1.30940277439489        9.92358931165053       17.61739165617185
H            0.30275865235831       10.00660082000258       17.18390099002918
C            2.10074897667500       11.19931024990108       17.34067152161242
H            1.20317695416804        9.78884335758439       18.70469299889318
H            2.00189313853859       11.46879381927747       16.27907426253362
H            3.16558389307284       11.02626134920934       17.55457245766733
O            1.59602438936635       12.22669591820076       18.16600476183847
C            2.27089431807439       13.45323086103438       17.97547762616663
H            2.06851014291745       13.86038717094046       16.97787333158276
H            3.35023612569144       13.32185791739552       18.09477407632050
H            1.88910574106929       14.13519887045226       18.73246085704797
O            0.11355018780956       11.74420426793275       14.38138786155722
H           -1.05659205894180       10.10883987318855       14.86123194141918
H           -1.84199122764416       11.34699160951112       13.84667093407454
C           -0.34398708397849       13.02185699834113       14.75823360069395
H           -1.02866461661202       13.42940962263184       14.00277282807037
H            0.54357022408233       13.65707343198961       14.79620943825175
C           -1.02983772178389       13.04594550047551       16.12987557628998
H           -1.95339156563168       12.44614969001468       16.10822832008721
O           -1.33128001870612       14.39061189474903       16.43722429228938
H           -0.36157801899774       12.61914719484110       16.89019962093559
C           -1.87139216662608       14.54324903660579       17.73170761249786
H           -2.82913143217194       14.00913132515761       17.81851343798047
C           -2.09225487579028       16.03065870401962       17.98958084197093
H           -1.18423200988151       14.13492817323505       18.48602461463306
H           -2.78091424643084       16.43491084735727       17.23257566184555
H           -1.13385413897212       16.56228720792195       17.89616383062035
O           -2.62616861218277       16.19070536381539       19.28370608923874
C           -2.83693890772987       17.54299986448320       19.62349674150063
H           -3.54656807643333       18.01754586870619       18.93534219321480
H           -1.89612689933750       18.10576710813501       19.60457974132131
H           -3.24583178099839       17.54553208204269       20.63141809130387
O           -2.40525929969427        8.89353660464254        2.89024508805062
H           -1.14153026510644       10.40030303785804        3.53400304874330
H           -2.77825861478473       10.32766481682647        4.23766364117269
C           -1.40608781331802        8.34632336549092        2.04898754474848
H           -0.66499219820762        7.76973585277606        2.61363261323622
H           -0.88440242922466        9.15061047823469        1.50846285381731
C           -2.10535932071620        7.43407982034429        1.04511627989681
H           -2.56995787359780        6.59526586142890        1.58175513563088
O           -1.16126610708305        6.96369508651590        0.10880629985231
H           -2.90205368820007        7.99921548388519        0.53828471020552
C           -1.72570118679233        6.04429840808713       -0.80024538747651
H           -2.11933923990923        5.16625010792320       -0.26722435039425
C           -0.65285636187207        5.59552376692105       -1.78856464233553
H           -2.55805717071828        6.50674439174276       -1.35098273076704
H            0.20231431163104        5.17323457722153       -1.23900337843866
H           -0.29408801909049        6.46316868818395       -2.36153900586613
O           -1.21947511443350        4.63210548967461       -2.64333517600799
C           -0.33768230123802        4.21263564635449       -3.66537095833227
H            0.58289858234752        3.78970003718814       -3.24879171028022
H           -0.08205166504492        5.04956444988191       -4.32596136601541
H           -0.87084923187993        3.44778831895289       -4.22533210274916
O           -2.83129638602819       13.79240076893268        7.60570059640909
H           -0.77246649868160       13.86078204490962        7.57886466140754
H           -1.54375060875517       14.34861253548266        9.11594117440358
C           -2.97481989087799       15.04312616953567        6.97483526354369
H           -2.18355900583518       15.19606628792966        6.22540503799516
H           -2.91173604043537       15.85958186825617        7.71000583485336
C           -4.33601295184602       15.07490677974138        6.28621733176966
H           -4.40370174245956       14.22974675461655        5.58683223212754
O           -4.46938265141305       16.30354265957708        5.60659696352866
H           -5.13010617925837       14.95741400466557        7.03738381498723
C           -5.69032174872617       16.40927009589922        4.90632525217445
H           -5.77916332028125       15.60794184490176        4.15852524938218
C           -5.72917343453443       17.76558572783050        4.20826865230696
H           -6.54242960570265       16.32586359468886        5.59628112689976
H           -4.87111287870069       17.84689087594598        3.52466306213575
H           -5.64422800105607       18.56512140967433        4.95914962783974
O           -6.94250190387981       17.87419901344817        3.50056190510581
C           -7.06171657540358       19.09638725525072        2.80667281617477
H           -6.26001447122564       19.20990820954096        2.06751383378441
H           -7.02932381253176       19.94729036912697        3.49731155006018
H           -8.02486558066311       19.06947194040540        2.30214471523457
Cl           2.94374377046371        8.25918229588656        8.81985395462542
