109

Cl          13.63080805957441        0.49879189426864       17.73320959440812
O           14.83918059946536        0.37153665496807       17.00610437278562
O           12.53511251975524        0.05208805664038       16.93364867298030
O           13.43517320911732        1.84683422560544       18.13680897631394
O           13.68869178901993       -0.37050784352819       18.86816469166047
C           13.43901343701406       -3.41580076772475       15.23623317917594
H           12.36569844796619       -3.49844778378576       15.06806940962247
H           13.92138077282682       -4.22049174269777       14.66312154345264
C           13.91024221369097       -2.04106178761038       14.74839520693641
H           13.48557281373043       -1.26055397117397       15.38238450817405
H           14.99643883284887       -1.96084787343001       14.77770931159549
C           13.88233794800448       -0.47419525874998       12.83457964876176
H           13.54386653899472       -0.38247907396120       11.80026083226816
H           14.97103754106264       -0.41410062979378       12.84608166214265
C           13.29187387309062        0.63394341956157       13.66493571653610
C           14.10833748122816        1.51053521853716       14.36048325154729
H           15.18007651545848        1.40924526736006       14.30216752380223
C           13.56208748662008        2.51625373814221       15.14060008322221
H           14.25005861455280        3.16250298028339       15.65820733592405
C           12.18585865464880        2.64825222483194       15.25048535218480
C           11.36687564023582        1.77482821502661       14.54089984760770
H           10.29448347951896        1.87641718509230       14.60108465885525
C           11.91065305074661        0.78400577881706       13.75094830919883
H           11.25075685465135        0.13922907243919       13.19047771308936
C           11.50797733114230        3.70625528777086       16.08361682812284
H           10.96960713501598        4.37797450070532       15.40913446036378
H           10.77000774029719        3.22292035770426       16.72672063331503
C           11.74538296557300        5.62512440795560       17.59866416587658
H           11.06295401319329        5.23121485539337       18.34864260106349
H           11.14478166437551        6.14542447430119       16.85114196957626
C           12.71430537206322        6.64718605027956       18.19852365664627
H           13.52584825290597        6.83013390045369       17.49496547793865
H           12.18663439712295        7.60352300938955       18.30286048893009
C           15.04828646831626       -4.05346474648345       16.91774193580460
H           15.71422542447824       -3.64124308792129       16.15934669352294
H           15.09705066658121       -5.14831358489206       16.82581469174868
C           15.59302173913239       -3.66738516623397       18.29263001726733
H           14.94938470598319       -4.01037821273232       19.10120398132531
H           16.56235347405226       -4.15411520243341       18.41425427230195
C           16.66562150994752       -1.78693683784937       19.52778720957027
H           17.63625651355274       -2.27299419952726       19.41475549653188
H           16.22217979742143       -2.09828524834308       20.47330106078601
C           16.80382629907895       -0.29142666578261       19.45825171829038
C           17.65421101883913        0.27439752801182       18.51448649795693
H           18.30810010514537       -0.35136646915125       17.92655147994400
C           17.66751266793949        1.63971826834617       18.32040456550668
H           18.32485735648907        2.06660444567355       17.57886412242034
C           16.82969307703029        2.46487040411813       19.06266600648997
C           16.01842654530932        1.90396845132148       20.03949457115658
H           15.38139039020295        2.50119680497168       20.66834344036994
C           16.00672740805548        0.53372566048287       20.23531570914253
H           15.35881361338474        0.10285421756619       20.98118367135444
C           16.84790363340656        3.93838142025358       18.74316819486388
H           17.82510444271422        4.35141822699302       19.00643986193914
H           16.72851607843614        4.06068925336471       17.66449669601405
C           15.69674563918966        6.10761735841067       18.97853049513938
H           15.52519817180464        6.11714144892965       17.90326371580054
H           16.63932292616678        6.62118141708220       19.16767978643808
C           14.58062070197325        6.82530512579683       19.73324804237607
H           14.78855238850163        6.77830988342872       20.80282220422007
H           14.59263696692935        7.88815524585931       19.46001266805670
C           12.69198010127014       -4.39705941975072       17.31970465048455
H           13.07163125846442       -4.68848262607924       18.29903897570343
H           12.50650075275963       -5.32763672785286       16.76386122915959
C           11.36196266957782       -3.66719302930074       17.50841058482417
H           10.85837567475785       -3.47278464080921       16.56284924472800
H           10.70908929797768       -4.30832461582165       18.10279014410208
C           10.32942052461857       -1.85145402966892       18.85099150388531
H            9.92072316636302       -2.60913168351114       19.52237744002613
H            9.59304967924061       -1.63489059992212       18.07720013112327
C           10.68818218298098       -0.60931541462679       19.61699674107126
C           11.32678916515932       -0.71451665325897       20.84801747465987
H           11.48712078751362       -1.68260000328915       21.29685738207361
C           11.75100793829729        0.41822502013496       21.51187049232483
H           12.24619575686140        0.32346546586138       22.46585907930686
C           11.54189857802396        1.67774748085562       20.96173648111892
C           10.88189872417132        1.78125293249177       19.74410235629462
H           10.66269109187487        2.72979697973293       19.28616767627477
C           10.46243506344824        0.64474728154672       19.07537315896611
H            9.96075921417747        0.73094292020354       18.12483135452244
C           12.04779089179833        2.87570783095848       21.72856387755578
H           11.49890600355619        2.95773162447052       22.67023078662393
H           13.09874577860303        2.72234639739070       21.98080998495438
C           12.42763265183942        5.34781164192764       21.61373573638146
H           13.45276659842601        5.17152258695073       21.93610434571756
H           11.83459214599944        5.59310956025688       22.49375261186893
C           12.35832596371333        6.48820314063937       20.59673246133658
H           11.33671893117523        6.58222413513836       20.22711815842734
H           12.59058679882763        7.43704356961659       21.09140145771147
N           13.69511287885710       -3.55606369347054       16.66864299871979
N           13.46642836259155       -1.80340045792447       13.35801855284062
H           12.44113159471879       -1.86417152138389       13.31770536998390
H           13.83789444842746       -2.53792601758381       12.74394314407556
N           12.43617166596758        4.49617845527576       16.92165057910884
H           12.88899924244276        3.83072618734058       17.57232858613310
H           13.16258058037905        4.88559983326403       16.30803023311305
N           15.77419812549171       -2.20595841924890       18.41200148062270
H           14.86645180568637       -1.71497361994151       18.55361319413075
H           16.16166918485423       -1.82839883954499       17.53753620848431
N           15.79087495581633        4.70233480137548       19.43456885758258
H           14.88276316503598        4.24018338562007       19.27882796509264
H           15.98357302795962        4.69279628832885       20.44374215022965
N           11.56157382289629       -2.38424050526721       18.21343222198163
H           11.92698171795170       -1.65730246197532       17.56627764655134
H           12.27322069736371       -2.49793123276708       18.94641258942496
N           11.90210986986603        4.12720127713896       20.96266291063450
H           12.38837996583501        4.02271906314191       20.05864050394319
H           10.90197324487307        4.26966524769384       20.77661439380285
N           13.27346565125685        6.20947079376014       19.48092392996088
