90

N            5.24589124867220        5.45730135699928        8.40544363927936
C            5.18847249653621        6.85576239941573        8.02606553927335
H            4.14684983476405        7.15231330522102        7.88552150184330
H            5.71594165984533        7.03545953382399        7.07629172460174
C            5.79022964509025        7.77058916814166        9.10853435552831
H            6.65508416124969        7.28475952778265        9.56102086914976
H            6.08881637677687        8.71827266159241        8.65293248099193
N            4.84104475917599        8.07179084632286       10.14908107774288
H            4.73665951353657        7.40054798144501       10.90650479370120
C            4.04518895918332        9.13913326471271       10.10876706960975
C            3.09000191383661        9.26602823751162       11.26232190697232
N            3.11705903615208        8.35008488108871       12.22410320182469
C            2.21085289132902       10.34847590586108       11.27010550373300
H            2.25325767489778       11.05296071137819       10.45420845878080
C            1.31977698544270       10.47899055972081       12.32045259048267
H            0.62464527172979       11.30489434483915       12.35944384155454
C            1.34385258916295        9.52342912253660       13.32055622912396
H            0.67998624003308        9.55461992719365       14.17018456084696
C            2.26178104013723        8.47710543017019       13.23226987347303
C            2.27685529386690        7.45848318958272       14.33691597569774
N            3.23389960539524        6.53606068848388       14.24673223663556
H            3.88294931075485        6.56439604212346       13.46396185471245
C            3.41446565147106        5.50897164507989       15.24020684141807
H            3.70463663466641        4.58459879811161       14.73910389077080
H            2.45325761074611        5.37406274238350       15.74293436642723
C            4.48544390107513        5.89089262645681       16.28110916259488
H            4.44587663670834        6.97369113882827       16.41443513438886
H            4.22139852213403        5.42605061733759       17.24440675782600
N            5.81644195069296        5.50895044140020       15.85792611228699
C            6.17846944477291        4.14459712380649       16.17928559969398
H            5.27489373772504        3.57101732158548       16.39690757857912
H            6.82277404449026        4.10039049766303       17.07176208157250
C            6.90953878718942        3.44664355553356       15.01574950144808
H            7.54016705752317        4.16724946197351       14.49357032611704
H            7.52526715814478        2.63486142314127       15.41197248612258
N            5.99215554864433        2.85979671634889       14.07260937203207
H            5.57211600115558        3.46488012408530       13.37000428562162
C            5.65522780690146        1.57161726461708       14.11899650629192
C            4.64255384946715        1.12896080833668       13.10094722847073
N            4.20810957024985        1.99670158463057       12.19376997259386
C            4.19506573160997       -0.19069332877878       13.16520161886618
H            4.60090602633700       -0.83484466714300       13.92966813235251
C            3.25039470657346       -0.62301498229511       12.25220824464802
H            2.87851447022878       -1.63699659054395       12.27453609509173
C            2.79474498797481        0.27992490342804       11.30873343172498
H            2.05897247375759        0.02059890477148       10.56386672769461
C            3.30397476115628        1.57842625633912       11.31454927015900
C            2.80386058088754        2.52941047338203       10.26372909558612
N            3.36466816964888        3.73764584380829       10.27164287901526
H            4.08950041686283        3.95156859296288       10.95386755385988
C            3.04937245703440        4.73866101509953        9.28505107197593
H            3.07576227917800        5.71972042328227        9.76107595779525
H            2.04150357904619        4.52803187444123        8.91794334097612
C            4.03879002858996        4.71262800560484        8.10469651581392
H            4.29093655595475        3.66945529515572        7.90078069815630
H            3.53321021086568        5.10976955116884        7.21137465283024
C            6.46720353241439        4.79194290301991        7.99923890304257
H            7.26835486849561        5.53100911884261        7.94169352596921
H            6.36312649927556        4.33417383029205        7.00101486574836
C            6.89630128731456        3.70550355498575        9.00395502742651
H            6.01356983569639        3.29273442047041        9.49628704808490
H            7.43079828201008        2.90904251543695        8.48035019018681
N            7.79306864415104        4.21748281257231       10.00858397051730
H            7.40158032946302        4.79941792975767       10.74568913195981
C            9.09925471852189        3.95462095873689       10.00515392626953
C            9.88917743866555        4.60125587577948       11.10793075976254
N            9.25570599711005        5.33630881607067       12.01474904906389
C           11.26991560979285        4.40484615074789       11.12182988214754
H           11.70906843002153        3.78968655819954       10.35250644744228
C           12.02232717125076        5.00544657038497       12.11527624774613
H           13.09373590016565        4.87454871149902       12.15439328548588
C           11.36479013987095        5.77810208995088       13.05586467094962
H           11.88211828423492        6.28081243920575       13.85800384366489
C            9.97975063316060        5.91279117776961       12.96802198652125
C            9.28301455441541        6.73892275436901       14.01262151986302
N            7.95295950792756        6.73892613225214       13.93593755210793
H            7.49645591076867        6.18315192630530       13.21574650312245
C            7.11983753218813        7.39397692622065       14.91122870597586
H            6.17740765905730        7.66351332892891       14.43460236958151
H            7.64201235019740        8.29370085237694       15.24724136702944
C            6.84766388362044        6.48947017648402       16.12867657978571
H            7.78396765645925        5.98417972322400       16.37870261638190
H            6.57805147490267        7.12741625901207       16.98246346688974
O            4.06935944318331        9.98522036743758        9.21482054693037
O            1.44641880851159        7.50427314897836       15.24462538010360
O            6.11836973376989        0.76939472194113       14.93026452763078
O            1.93372270032684        2.18019423835802        9.46560394131504
O            9.65643441859925        3.24235853834365        9.16968752937491
O            9.92637101358949        7.35531256032212       14.86199002939253
Br           5.52133024311718        5.47254310881098       12.08699344140935
