121

Re           9.42062805201807        2.57098887082011        4.06865148074477
O            8.20698061328237        3.68922122361942        4.31960456050994
O           10.82904187155065        3.43732698908378        4.26613876508803
O            9.36801653676333        2.27079140542494        2.42830447873951
O            9.30233776314256        1.16653795923399        5.02898854089086
C            8.63611359238757        7.45691686279653        2.07288766997331
H            8.61886699661373        8.40963940561852        1.52441287099941
H            8.90763415475387        7.68682406498278        3.10163093187884
C            7.21073343708406        6.89270907665093        2.06196578942357
H            6.58996062781495        7.48644341042471        2.73255057611514
H            6.77126121436288        6.97889559931620        1.06740327302546
C            5.89756363152832        4.78160143264329        2.17169049821784
H            5.60435451970441        4.99604117211406        1.14236204239327
H            5.11972061846844        5.15953217218529        2.83436906965161
C            6.11130395191708        3.30561837085066        2.36170423567758
C            6.77626719802971        2.57826056642777        1.38131191553465
H            7.02054541218571        3.04011817496370        0.43724637356569
C            7.11324714486007        1.25618227149138        1.59864635108239
H            7.63511002495111        0.69747295047017        0.83898532623967
C            6.79002120658805        0.64341053591984        2.80266674153250
C            6.06634379425282        1.35405961666951        3.75525842045909
H            5.72524786164524        0.89759394580910        4.67076271382314
C            5.73502739878679        2.67905224800604        3.53909494518913
H            5.18214592405148        3.22353610982276        4.28745867903630
C            7.23027233885827       -0.77829206851839        3.03650255119091
H            6.44202926437827       -1.46628093913195        2.71613415069691
H            8.12074157283014       -0.98642446911558        2.44003462948773
C            7.92214136219177       -2.41963931048549        4.75837372264176
H            8.89500343627909       -2.62436829847829        4.31308003734122
H            7.19998614483816       -3.09884681572839        4.30301181909944
C            7.92276417856056       -2.65235925997049        6.26958180325262
H            6.93964403587612       -2.39952294135634        6.66958634914796
H            8.07058785586425       -3.72092691297530        6.47084486549671
C           10.98761855057600        7.11390358398873        1.64661431966246
H           11.06051668754689        8.07867810674278        1.12367873308784
H           11.69719223058894        6.44214104476218        1.16860011357530
C           11.43111564877740        7.34180207078019        3.09666181332722
H           12.50817950845786        7.50682295529629        3.11294037209611
H           10.96603091046708        8.23945996041595        3.50539462330254
C           11.31072741994763        6.43781121412949        5.41577436294913
H           12.37528929614340        6.36548185505190        5.63474886419581
H           10.97459676119996        7.44616859024117        5.66506694135559
C           10.52089408204038        5.42172504027916        6.19396004682418
C            9.13943477617989        5.55897048128388        6.27132485058072
H            8.65940159875338        6.44118758336326        5.87718014514258
C            8.37060173647720        4.57938147218381        6.86843674579207
H            7.30036430501478        4.69444469465676        6.92466254565221
C            8.97256440404992        3.44359595183714        7.39626084893959
C           10.36019951037733        3.33665192209143        7.37114745517193
H           10.87184330647777        2.50698670240090        7.83218714094752
C           11.12924214623797        4.31696931748330        6.76904000328032
H           12.20223961730093        4.21929978091917        6.74310701305521
C            8.09760304880690        2.36777784877095        7.98668513816451
H            8.00200389670014        2.51745787630178        9.06633154746679
H            7.09962464989247        2.43569805373179        7.55155099814597
C            7.75932952112367       -0.07488782489464        8.20269693278287
H            6.89213551727863       -0.14419471313760        7.54836539556271
H            7.40403838793528        0.15955647414689        9.20721593169582
C            8.52722808471837       -1.39586870255982        8.25862187107986
H            9.41249383244718       -1.26703233982157        8.88341357647383
H            7.90772567165344       -2.14923952187981        8.76037891369573
C            9.35267656653704        6.17726279047857        0.13294140959315
H            9.46985813675778        7.03767409032140       -0.54135432359720
H            8.31403111416943        5.86295114947502        0.05961490040331
C           10.24309997293249        5.04579706209420       -0.40164558304043
H            9.77908598556778        4.62630177366843       -1.29411499544594
H           11.21552246627034        5.43517306299919       -0.70515164547766
C           11.47630680404385        2.97349661053289        0.19651409021986
H           11.08411188854687        2.39449610650978       -0.63487172914635
H           12.37055637898534        3.47929046482882       -0.17092996039376
C           11.83150650598242        2.09629882565401        1.37140669319266
C           11.38989778790607        0.76613170046834        1.44340754405059
C           10.58021943681013        0.16064136153300        0.44419487607294
H           10.23296064336069        0.72864123974963       -0.40079383661373
C           10.23012700100799       -1.15422291581783        0.50136593501085
H            9.61866335811790       -1.59496648901821       -0.27232843998460
C           10.72151381413051       -1.97009321661736        1.53879838374834
H           10.52735184982850       -3.03238383273665        1.51319067063415
C           11.45252533890042       -1.41850994761073        2.54746647285533
H           11.90066672265836       -2.08599356136956        3.26813782577071
C           11.75362217393086       -0.02556933691090        2.57902569709080
C           12.39347774921506        0.57267350782059        3.67996929386823
C           12.87928760731199        1.88568285102372        3.58990272984087
C           13.63984724322586        2.50192831353231        4.62144620421045
H           13.89469192003492        1.96076314880662        5.51622679222149
C           14.12577165246454        3.76694530326929        4.50210591798378
H           14.72277871177926        4.20072036561298        5.29098567148601
C           13.88810914582376        4.50481903832928        3.32827814159565
H           14.31735670167161        5.49082130803628        3.22942714663525
C           13.15685682923228        3.95838715271957        2.31620812645694
H           13.05489392864061        4.52939540518308        1.40917742356862
C           12.61858554005133        2.64274836948345        2.40036027120773
C           12.54591527846274       -0.22380142658523        4.95228480390828
H           12.96411459155492        0.38976182728843        5.74508818127996
H           13.22833610505155       -1.06269705780431        4.78821775966372
C           11.36099792668592       -1.42683747536485        6.74984634924480
H           11.34772956301859       -0.68772961928840        7.54860666602168
H           12.31720057600486       -1.94982549698081        6.79773421595490
C           10.24945190339120       -2.46159852641323        6.91837068971980
H           10.30334857404867       -3.17589256317240        6.09521246044443
H           10.43218071284067       -3.03792094294367        7.83405827866606
N            9.64308437516194        6.53337979915076        1.52938360829910
N            7.18320500237321        5.47124040017489        2.46733642520917
H            7.39963687521187        5.31693697939135        3.47014848614715
H            7.93000284289066        4.98007404068533        1.95657846319019
N            7.53204099063922       -1.02347981058744        4.46485192934175
H            6.68296364730789       -0.81934708886785        5.00434216577791
H            8.26404843278706       -0.34235015666686        4.77908822216106
N           11.08555067458109        6.19453972657385        3.96341224505899
H           11.60651322079390        5.33348327704813        3.71241467723673
H           10.08835809251226        5.97550640784858        3.82862105549021
N            8.64237682188908        1.01473051271351        7.72918667276715
H            9.53680707270951        0.93357927839439        8.22409018186740
H            8.84666393894324        0.92916138524206        6.69805147693265
N           10.45965795436262        3.98118965798043        0.60405746218184
H            9.60489236386105        3.44786287620058        0.85340998524689
H           10.77704042765521        4.42611473824505        1.47653604447076
N           11.24130672691554       -0.74478960845027        5.43863065391605
H           10.52827917767058        0.03230142621872        5.44885566521401
H           10.89353567379713       -1.42160646162245        4.74692009078398
N            8.93517826951248       -1.82175986839353        6.91994129864858
