395

O            3.06309298797927        4.36148761030866       11.70711928425737
O            8.96468776201061        5.08265586674024       10.84553226640777
O            4.61755434856051        4.22212259587545        6.39904611633279
O           -1.20351030903136        3.45419517706307        7.61475706175498
O            0.96697372078317        7.73992224257484        4.14718832588757
O            6.53893551446606        8.77539828767548        2.57321597127465
N            4.72974589880459        5.93354529025996       11.70225964236521
N            4.57688798132431        4.54780124067393        9.98365338438412
N            7.08427746964702        6.32825167295805       11.28309222560815
N            6.98525310714795        4.77496320144683        9.70702156573941
N            3.07850508440125        4.33632386136849        8.09832643619151
N            2.57863889282488        5.25280099407589        6.14598528476715
N            0.73601823524162        4.13477816371829        8.64396507389857
N            0.22335779306226        4.98722881270858        6.66722548545010
N            3.10323021220152        7.12407351896376        4.71121524823346
N            2.62569865920666        9.28121716409230        4.52821794388439
N            5.42367301890028        7.57026155686035        4.18537381432726
N            4.92955582684516        9.70858479022264        3.92652089568011
C            4.02533081679726        4.89957480870387       11.17637672120069
C            7.79304858282425        5.34601440612256       10.64720236977076
C            5.74225943144000        6.43849608241207       10.78759146828737
H            5.49917491997655        7.46973234964470       10.50614691177236
C            5.68997063590201        5.40620256969114        9.63258866710889
H            5.52201012609604        5.83345170329551        8.63684969443781
C            3.54399572841731        4.58604720644043        6.84176254369932
C           -0.18104338227789        4.11795507216360        7.63722777427342
C            1.83305863301410        5.02166056153619        8.36682171454220
H            1.95447296808373        5.75664335356006        9.17140234687675
C            1.46893539287975        5.63435570391400        6.98994408859402
H            1.34768424173499        6.72552010551315        7.00150208343693
C            2.11994718806974        8.02195923982337        4.44182401108814
C            5.70465844465070        8.68978445711338        3.45855070604638
C            4.34159537648704        7.77198042614123        5.10960175761804
H            4.61807889367718        7.45393268961727        6.12176044674464
C            4.01420745608796        9.27970127734853        4.95035070726656
H            4.12649648702245        9.88260869653834        5.85785732381384
C            7.70052196393076        7.23643566712077       12.22694490991933
H            8.55304114509571        7.73109696370224       11.75226371274907
C            8.20231589528244        6.47553566121973       13.47329441452616
H            6.96887763005180        7.99531909621084       12.50648827398742
C            2.81746543861876        5.71658196113545        4.80370407275794
H            3.66551224301434        5.13406249860578        4.43699637703099
H            1.93286396505465        5.54578340688531        4.18427901320036
C            3.90201851386348        3.66622208969409        9.06847128095433
H            3.28794972051490        2.99690356140229        9.67507263145678
H            4.63751276797047        3.10523456484833        8.48771914561319
C            4.44468742704866        6.42198789442414       13.02242326319497
H            5.37232589367804        6.71043035182696       13.51624144682208
H            3.96414760442961        5.59174912030238       13.54643903327610
C            7.35731578382683        3.56638374197852        9.01483981649032
H            6.85566297504843        3.53953390626311        8.04649927017529
C            7.03479667775650        2.31058109678935        9.83635097454470
H            8.44047939871066        3.60916663006747        8.87820214355679
C            0.52131104594513        3.44599405486248        9.89674441727461
H           -0.47350966041228        3.69446780735478       10.27782692989462
H            1.26880206691207        3.79006336994661       10.61180776759297
C            0.60425712761462        1.91806399965878        9.70779540201678
C           -0.52717642176720        5.15493559013362        5.44515805040809
C           -0.39900233515805        3.91480280526069        4.55213314773366
H           -0.17060133156435        6.03902679124107        4.91693069801081
H           -1.58144484946376        5.29604598884259        5.69685874303140
C            6.10238114772237        6.31443298579799        3.97264377906975
C            5.73640009949119        5.69678391965823        2.61624993042763
H            5.83556673556505        5.62209740188164        4.77278768402820
H            7.18088916587322        6.48739440756229        4.00103305567090
C            5.01083601115114       11.05351237665933        3.41165176820044
H            6.06321113438019       11.33868716240969        3.33701295477091
H            4.50845112826398       11.73069224718593        4.10412343678992
C            4.38180205834536       11.15372181045368        2.01675339476309
O            2.96396691122454       12.56286052932095        5.94327969750494
O           -2.83636526509709       11.09000343411721        7.18840728296820
O            1.28145983430908       12.29278839413696       11.21526833850134
O            6.83271715095583       14.25697722155546       10.45830748355937
O            5.19688958722728        9.17709092657070       13.30723222733278
O           -0.41227730091811        8.08613114977181       15.09669685001944
N            1.38554370419891       10.89942179334522        5.82248529567569
N            1.51838975590459       12.11243874399325        7.67199242191271
N           -0.87354106387162       10.22345172809199        6.37202702225938
N           -0.79264529699743       11.52916708969416        8.15814587539989
N            2.92908368324392       12.37303319747733        9.62221539468092
N            3.44867837351600       11.66281801170053       11.65270184900644
N            5.19874973655998       13.13520311635923        9.28407192151825
N            5.71822773101777       12.44450366042882       11.32266228301768
N            2.98453713423828        9.70315900526882       12.98892773201264
N            3.57602971783379        7.56832315768056       13.06115252090565
N            0.63984490940941        9.19913265818816       13.38215097194560
N            1.34926453266974        7.17523466049788       13.92604260610895
C            2.06320955667728       11.90894229873795        6.43893325188933
C           -1.62546344145370       10.97711250161267        7.23133545176956
C            0.51261128146442       10.19712355378028        6.74189389060982
H            0.85776066708327        9.16611558132938        6.89224310505122
C            0.56865123091455       11.07837407450777        8.01406279347182
H            0.89392899584535       10.54574564792503        8.91783610979101
C            2.43990836206833       12.11785315068893       10.86471098163225
C            5.99474359815808       13.37611052138599       10.36769820074176
C            4.32836174810113       12.00811683048876        9.49198272420390
H            4.44173126569422       11.26269571574812        8.69743632420193
C            4.69115276396721       11.52148397136242       10.91783563262584
H            5.04380429973314       10.48684789685310       10.98539337192950
C            4.03893859933791        8.84948579959779       13.11514274873015
C            0.44888310011889        8.15042448282452       14.23692082531672
C            1.78532150297998        9.00880124795346       12.54370121709492
H            1.55388237711714        9.26033056751829       11.50164072052756
C            2.16286624510082        7.52642995152229       12.78286107964456
H            1.95509558102339        6.85419742239560       11.94025415067238
C           -1.48905223591900        9.36038752349758        5.38970035060772
H           -2.28709578412645        8.78062623945202        5.86417153662791
C           -2.10812308027977       10.18927247850427        4.24843486159603
H           -0.73456695439728        8.67579976864980        5.00412407063863
C            3.19846318087493       11.12695292929959       12.96545190066571
H            2.31580460132947       11.63875246545665       13.35378834651033
H            4.06063622652271       11.31365205707196       13.60898420487474
C            2.11748309134672       13.01238185018195        8.62329736326503
H            2.72097353599711       13.71129708447956        8.04190300066410
H            1.33018716908234       13.54036712439176        9.16760364665858
C            1.76523855842211       10.43621839341651        4.51437886180050
H            0.87157643985378       10.15015788907377        3.95358122090839
H            2.27467827330647       11.27371995408362        4.03262854666282
C           -1.25446164089994       12.48361210599766        9.13794690221619
H           -0.59249569843230       12.44609529361897       10.00429378011837
C           -1.32231935571591       13.90624523127422        8.56994774801154
H           -2.26816473494655       12.19083955537003        9.42184610626253
C            5.43387421763157       13.75536036602625        7.99684685960462
H            6.47941620185692       13.61378719492561        7.70571643383841
H            4.79523084624577       13.27057749138470        7.25735206761451
C            5.15068683697471       15.26924865262761        8.05378766028083
C            6.38222283878206       12.42121556240651       12.60239936981240
C            5.82894717795214       13.50543898160102       13.53708994198835
H            6.24574130697708       11.43637981442428       13.05233032726643
H            7.44873493739134       12.59514530545512       12.44291677275623
C           -0.11120952526215       10.42814859760428       13.49913745270013
C            0.13455274679887       11.09138930217863       14.87026649089271
H            0.19874638665190       11.10049380934397       12.69725996203449
H           -1.17321394698660       10.19602050032865       13.37978071237477
C            1.43942469655598        5.94749514377468       14.68058593126797
H            0.44297856116116        5.76995659741096       15.09362783386616
H            1.71017134349798        5.13552083980603       14.00210403850990
C            2.43544976960374        6.00222739499871       15.85823067997680
H            6.27078332557333        6.22224956337509        1.81290892293256
H            4.65640240846648        5.80233979551581        2.42954016506542
O            6.09624639638017        4.33246412897103        2.64441656594052
C            5.87792992555133        3.67393475221658        1.41529509693771
H            6.43548844788396        4.16693764600555        0.60745907465870
H            4.81073730612908        3.68314727804597        1.15261485631464
C            6.35397129729802        2.23267067515159        1.56420584397272
H            7.42727821571222        2.22371177610236        1.79614805708852
O            6.09954018411941        1.55534286581992        0.35145934622733
H            5.81776252155939        1.75629612585038        2.39617711155570
C            6.52753811763436        0.20828021714986        0.37459817403566
H            7.61097062532660        0.14978576701620        0.54591906520259
C            6.18855734290049       -0.42081230360631       -0.97246780204206
H            6.02185011199169       -0.34467973623859        1.17773648271090
H            6.68794969655684        0.14136104913712       -1.77402397342714
H            5.10339270043230       -0.36745910695778       -1.13853769962775
O            6.62482903824989       -1.76207496168016       -0.95913681262263
C            6.35779987791078       -2.43881841243189       -2.17225051871901
H            6.86990449278657       -1.95388137853087       -3.00965733082867
H            5.28230601656133       -2.46456463403726       -2.37547136932078
H            6.73506668962153       -3.44937620834835       -2.04152570593349
H            4.99319791405998       10.58180417158578        1.30401398280330
O            4.33294660984099       12.51398283384628        1.64338093490078
H            3.36877295451456       10.72344135266957        2.02077711427978
C            3.80441938852980       12.70658746443952        0.34803955029156
H            4.38011774387530       12.13480126254758       -0.39219480897796
C            3.87210195368768       14.19472767237588        0.02123250739791
H            2.75826383960845       12.37240132643297        0.30316954263942
H            4.92108713707242       14.51419823278638       -0.03987743339644
H            3.38454630041196       14.76251035602008        0.82574451747393
O            3.21177174421234       14.41013115322357       -1.20663621001343
C            3.26534273398099       15.76201819189073       -1.62953848105690
H            4.29160033311129       16.03335523172375       -1.91116281545581
H            2.94093589880908       16.43391623408072       -0.82518541001792
C            2.33199329538101       15.91777109661741       -2.82590766928953
H            2.72491931833755       15.35464742600881       -3.68396326807358
O            2.22544739027594       17.28880888768815       -3.13981624820941
H            1.34703351820196       15.50412145003142       -2.56584008806862
C            1.40851604290577       17.53012120621177       -4.26911293759068
H            1.81620367873770       17.03703707837232       -5.15751590635883
H            1.40407560570385       18.60718611530724       -4.41301623453691
H            0.38849386475197       17.17127780315585       -4.09657909013718
O            5.19916169879202       15.88707344463565        6.78730348292236
H            5.93029655092452       15.74842078974470        8.65060530576915
H            4.17910963467470       15.45033019816569        8.53301201022687
C            4.00627864555589       15.77823319089907        6.02996518716543
H            3.17659666246443       16.26652649534270        6.56151816580354
H            3.73505606895634       14.73424062618918        5.83815060629292
C            4.23285317776752       16.49675271795333        4.70389876469939
H            4.63896157350502       17.49866090442565        4.90107916428138
O            2.99332000722553       16.58942076208475        4.03170121681358
H            4.95845978975166       15.93887176105089        4.09742741010304
C            3.10531259701701       17.22036180931183        2.77344097099996
H            3.46447517490070       18.25212564378022        2.88819837844441
C            1.73171915498507       17.21984719002532        2.10977057513614
H            3.81794760635885       16.67924090753165        2.13481322421882
H            1.04142584941833       17.85682568313635        2.67910400179356
H            1.33118593921706       16.19531476796385        2.10941084121813
O            1.88074424271330       17.69864076632913        0.79167239521885
C            0.65416845418427       17.81169556496105        0.09489637929306
H            0.00009918455329       18.54441736193226        0.57762379192527
H            0.14186875923741       16.84481568760904        0.05115775346539
H            0.91305893569514       18.14057400790447       -0.90911504285142
H            6.24167762657212       14.48455901649319       13.25611786774691
O            6.18240228712428       13.18242075262068       14.86577608687517
H            4.73383066754498       13.55784168171485       13.44226636718706
C            5.63802843982022       14.08424439525074       15.80573840707787
H            5.98636986094946       15.10639506588784       15.60596631673900
C            6.06440312307317       13.64119614775094       17.20252652767106
H            4.53976254923499       14.07576503978367       15.74932586749909
H            7.12679577998559       13.86247754926554       17.36560410832015
H            5.91913605383545       12.55460372266171       17.28847356194502
O            5.26356785416519       14.32235554850191       18.14518385003754
C            5.62308286099301       14.04053553779327       19.48809714323518
H            6.57176716642809       14.53380904884302       19.73855792663159
H            5.74685404580137       12.96148919093507       19.63761689371806
C            4.51077769736656       14.55996401314823       20.39424473434044
H            4.42108142240747       15.65002270821374       20.28134801700925
O            4.82307669044124       14.22822121035509       21.72973801372053
H            3.55461367669603       14.10365080883136       20.10121681883732
C            3.83489349624822       14.66756051393661       22.64141986308223
H            3.73319663800204       15.75714231960187       22.60964151884962
H            4.17185942238752       14.35575354857454       23.62636190089912
H            2.86585104532811       14.21124752211489       22.41390867066150
H            9.15649528049375        5.99914725371360       13.23884712618814
H            7.48030190900570        5.68866227724115       13.73432633831372
O            8.44762821837866        7.30477127340077       14.58822764279956
C            7.28918534299291        7.64264663417805       15.32930644771804
H            6.79379929847542        6.72847085689397       15.68911128489519
H            6.57938517421960        8.22321250053743       14.72992773950445
C            7.69811318320890        8.48586070647913       16.53186692379565
H            8.45825904094707        7.95589574149121       17.12191328458903
O            6.53578283187670        8.71056048873025       17.30676718379456
H            8.12167760192455        9.43770430543356       16.18691357278257
C            6.76005715134957        9.59979913170714       18.38057635172365
H            7.52488725736071        9.19945046404754       19.06032565131482
C            5.44882783838547        9.78455399553233       19.13808893007224
H            7.10903017541587       10.57240243948527       18.00599118673888
H            5.12474509974443        8.81895698605486       19.55063536762887
H            4.67123754231359       10.14456287062395       18.44800720977107
O            5.67020627576052       10.71591742019672       20.17498390485599
C            4.56159715721595       10.85862722464806       21.04186711606198
H            4.36311366095048        9.92374836466466       21.57548426010653
H            3.66672872054994       11.15002899794623       20.48176776419156
H            4.82771976584236       11.64743465127572       21.74209525283301
H            7.32493079461808        1.41690788738601        9.26642652582088
H            5.96451425185809        2.24913511786222       10.07418671649386
O            7.77449226613223        2.38437760846722       11.04016863733596
C            7.54380825855169        1.30914748816121       11.92112060560848
H            7.77614095364195        0.35095859469991       11.43574838728398
H            6.49370000893098        1.28643541629256       12.24888584507806
C            8.46613588513307        1.50898444258569       13.11898990265642
H            9.50140466253534        1.58586920665069       12.75930396495206
O            8.32281626708581        0.41754537310427       14.00131486195522
H            8.21466317466220        2.45315386519032       13.62198326453669
C            9.21602583053664        0.48804154888679       15.09561452106325
H           10.25641806708189        0.49887144396078       14.74361403161249
C            8.98630014747242       -0.73290921255055       15.97889968276007
H            9.04253118861756        1.40350292532773       15.67741347867725
H            9.15605637940422       -1.64653578554714       15.39177107559018
H            7.94558597094463       -0.73614274557551       16.33077301492181
O            9.87715899845563       -0.67088818863609       17.06999905613580
C            9.72304538480580       -1.75608036947154       17.96501055407703
H            9.91636160329062       -2.70803817965516       17.46006161471398
H            8.71232265497037       -1.77211833408575       18.38689899509939
H           10.45358244268978       -1.60070801576169       18.75383679488401
O           -0.97153185947226        4.19569480596425        3.29352376978757
H           -0.91795222316245        3.07145412890230        5.02992988868901
H            0.66071724620400        3.64106265277473        4.43401353866509
C           -0.88356183387536        3.09969618846317        2.40629096667146
H           -1.33350866045558        2.20435590316225        2.85595168618332
H            0.16701668745256        2.87633488650391        2.17223867947858
C           -1.61648690394604        3.45460454333225        1.11645641198498
H           -2.69306824129815        3.54483099010249        1.31266346605421
O           -1.36377999556891        2.43125883494957        0.17823352233577
H           -1.24861440058358        4.42192118171653        0.74713433684490
C           -2.12005940589325        2.56368797579545       -1.01306950050300
H           -3.18613761924060        2.39375629824097       -0.81030583695068
C           -1.60645534176555        1.52687727707890       -2.00682589201858
H           -2.00935588724051        3.56706732335019       -1.44191836045432
H           -1.78880427375399        0.51621833416661       -1.61472235469572
H           -0.52161948681235        1.65583733872559       -2.13139430987293
O           -2.27155714606329        1.70999164886091       -3.23623762840123
C           -1.87625772148764        0.77063415719905       -4.21719200404109
H           -2.09590767227630       -0.25084078835334       -3.88980775897875
H           -0.80558692986857        0.85621713490211       -4.43010701361121
H           -2.45232551978713        1.00521291630600       -5.10820954283066
H           -0.28213464809921        1.58460317319964        9.16319909461704
O            0.59677015628282        1.20593480416068       10.92349628883718
H            1.49654756132194        1.66449444318140        9.11898372072370
C            1.84457425247750        1.15744530921802       11.59395732888310
H            2.60410473346872        0.69739350543345       10.94566696703345
C            1.65679327325533        0.29541877351272       12.83807146596168
H            2.19006036974816        2.15518036883348       11.88854291931201
H            1.27432385654877       -0.69054052591022       12.54012219463876
H            0.91746326347188        0.76614250178109       13.49967184192920
O            2.90090695225120        0.16449067134781       13.49537038556343
C            2.80900080683827       -0.64879027667104       14.64784245770289
H            2.46293350937488       -1.65654463539195       14.37965353464689
H            2.09509314715605       -0.22088456064132       15.36493625113553
C            4.18333294943622       -0.74941953251907       15.30075757662688
H            4.90957868893132       -1.15580063223948       14.58261562620553
O            4.05838473802971       -1.59723166174347       16.42168106569271
H            4.52718515144992        0.24940836094714       15.60378334807611
C            5.27602610192888       -1.79552930869910       17.10963253326981
H            6.02059100122309       -2.26161994371870       16.45518598775470
H            5.04603481114512       -2.45606196087536       17.94153106657993
H            5.66956628290177       -0.84468466904205       17.48563112810855
H            3.45373212131201        6.20771008542507       15.51653712799754
H            2.40875445505886        5.02995591015120       16.35701850874973
O            2.07709896590332        6.94876522250721       16.85098269866210
C            2.68560789930820        8.21727142936075       16.71587484069858
H            2.64896296808147        8.57835423896172       15.68195043726900
H            3.74227875124508        8.17188021639894       17.02074363753600
C            1.91175606807543        9.19746384881837       17.59215229127803
H            0.84366241983024        9.10735081809115       17.34810569228799
O            2.37867091931448       10.50374655139802       17.32101212049009
H            2.04976046788663        8.94768509466994       18.65205149129330
C            1.68453379717387       11.50210363811617       18.04417154265211
H            0.60159014777046       11.39953844410519       17.89876640382717
C            2.14607266310585       12.86319897429106       17.53403140665757
H            1.89506376194691       11.41544395974976       19.11974375077609
H            1.84522751353072       12.97756512171999       16.48328557638139
H            3.24017314300318       12.92912069079621       17.59816049516747
O            1.55250280039196       13.87249602433190       18.32365950345572
C            1.87672998195838       15.17170577350203       17.86100925678697
H            1.49964691907862       15.32166874794151       16.84365494217802
H            2.96073849753834       15.32473808968900       17.87035330456973
H            1.39169483348678       15.86376404316085       18.54414387230889
O            0.06340304806982       12.49801224678399       14.84662468360142
H            1.14788339316125       10.85958442977259       15.21008677315675
H           -0.57624782317868       10.68426333360845       15.60114858026806
C           -1.24561269105080       13.01549521032736       14.69447566942966
H           -1.96539275146353       12.40509356275060       15.25331420123169
H           -1.54063233081608       13.02573242471761       13.63845027003096
C           -1.26622179685080       14.43583738951976       15.25471810112770
H           -0.91202161571029       14.41973394579189       16.29550382336489
O           -2.59330710392808       14.91224133332623       15.19305828644841
H           -0.59609431664005       15.07850059887731       14.66721543557012
C           -2.73971247595982       16.20715063279424       15.74131292180009
H           -2.40694797065293       16.22296606030375       16.78795052452260
C           -4.21493363581867       16.58612668100036       15.66898076762606
H           -2.14212729988168       16.93641553144111       15.17775344496170
H           -4.80798819540491       15.84951247086919       16.22902769513247
H           -4.54667113828031       16.56881651559974       14.62126787077074
O           -4.37193288041436       17.87439109173194       16.22091783925529
C           -5.71640558208254       18.31355530895848       16.21729249257115
H           -6.34705453736443       17.64226734316433       16.80922711961630
H           -6.10741303698647       18.36419078278946       15.19589856631256
H           -5.70959444235720       19.30496189626820       16.66193478262274
O           -2.64412531987819        9.39659579411038        3.21490323812673
H           -1.36182059510818       10.88998085495722        3.84913941154602
H           -2.94873513764094       10.75898776898259        4.65210038706718
C           -1.69041253842423        8.89396950204275        2.29488383431207
H           -0.93838819769346        8.26605633826206        2.78503766832203
H           -1.17937999616078        9.72586320356232        1.78894968229226
C           -2.44980931190183        8.06991297551004        1.26070959849913
H           -2.87847723588594        7.18102497823361        1.74275488070210
O           -1.55352393511286        7.69421783639936        0.23598520735310
H           -3.27022054826106        8.67544557321591        0.85136349299076
C           -2.18491516513174        6.95237019442161       -0.78766455509969
H           -2.68032377488343        6.06507807608019       -0.36910326935525
C           -1.12289470091731        6.50026237612267       -1.78573654027642
H           -2.94623592433411        7.56227479363695       -1.29206095598802
H           -0.26894400201336        6.08226014174809       -1.23198761968943
H           -0.76437760318667        7.35468395470196       -2.37495064910088
O           -1.70015970888673        5.52297399661119       -2.62251843135854
C           -0.81494134864245        5.03845370022660       -3.61447826338998
H            0.09354106555801        4.63069688487677       -3.15908185592288
H           -0.54119304464694        5.83442833654012       -4.31381439299841
H           -1.35557423436971        4.24918542135333       -4.13135734236626
O           -2.41267328910710       13.97760179929575        7.67261919070901
H           -0.39720354693172       14.15553668901147        8.03232049390688
H           -1.46395265598829       14.62325014328871        9.39126330899174
C           -2.45008242261880       15.17216944652398        6.92550168051129
H           -1.52499581051594       15.29705482175696        6.34359077732525
H           -2.56318912736286       16.04202218507619        7.58740981002922
C           -3.63372498818566       15.08505125364409        5.96793275622697
H           -3.56442360982455       14.14474330084585        5.40329814619250
O           -3.58894265391840       16.19886261644862        5.10223886722246
H           -4.57313982887431       15.07057080454946        6.53630138486500
C           -4.64433399277048       16.20797140831033        4.16152288455194
H           -4.62126072150298       15.29854410961234        3.54586046434912
C           -4.47352277579992       17.43467746564935        3.27164710334875
H           -5.61642714598311       16.25221420538386        4.67138957542898
H           -3.49798700585655       17.38501190237225        2.76764621070396
H           -4.49574391100545       18.34194479259708        3.89187826992536
O           -5.52106003394723       17.45086582996659        2.32800994823906
C           -5.45417417650171       18.56002030324466        1.45187462092541
H           -4.52394582961343       18.54456689005869        0.87445291463144
H           -5.51644861270665       19.50042110307716        2.00910158924543
H           -6.30605622181739       18.46657484815891        0.78404673895335
O            3.78568123549075        7.07880934071780        8.07113875340435
O            3.73009612208765        8.79142163857351       10.35476982737551
O            3.17619363197824        9.82625395775489        7.73676672235911
I            2.93562711110163        8.44414196706721        8.81173490195031
O            1.22686512910376        8.09309557768823        9.10002356541189
