103

I           -0.03357180141669        1.69979706895368        8.07219973441448
N           -1.51512027726244        4.14800144843887        5.72926423256627
H           -1.54515907456550        4.77727767898460        6.51493322638608
N            2.08319158459435        2.69680344333540        5.36182572885977
H            1.39699691892547        2.34306092820038        6.03035788906398
N            3.64128148541895        1.75015155744606        7.72859525754048
H            3.53941451830355        2.68199947248304        7.36028366338003
N            1.77509202284567        1.47246191683110       11.15210772452401
H            1.30420877634882        1.40390105189010       10.24831735585009
N           -0.96464944878164        2.60027981020103       11.53647059617192
H           -0.07090351881422        3.06034343514324       11.59837693283405
N           -2.88058585385616        3.84886531047205        8.36988527576470
H           -2.15634855077974        3.12916711587606        8.34272242398334
C           -2.51742411772650        3.28577243334050        5.41045591821708
C           -2.08249981840103        2.57547268597744        4.31513039855240
F           -2.77126312631360        1.62077978944020        3.64861006654540
C           -0.78923439392419        3.02490675651522        3.99457394709072
F           -0.02233743026211        2.57136335754024        2.97665652481025
C           -0.44794343974721        4.00463384268399        4.89804179683262
C            0.81707859449650        4.81777387636842        4.98848494279432
C            0.97708287786444        5.42664509506165        6.38986122859911
H            0.21448445634002        6.17999049476418        6.56771028573757
H            1.94953471379160        5.90517051255178        6.46671697794558
H            0.90725486782405        4.65609260146923        7.15179273943888
C            0.76314115277865        5.93868293725542        3.94091383462257
H           -0.11506897102486        6.55700533382775        4.10750949029361
H            0.70833316086757        5.51753337256271        2.94028728139116
H            1.65105435871283        6.56093484750399        4.00653065834343
C            1.97242557638677        3.89050465255938        4.71837562671671
C            3.05965564021589        3.98127777103448        3.88290960943928
F            3.38274371875844        5.00302916790060        3.05812908787607
C            3.81830322223865        2.80356909923830        4.03164084825741
F            4.96602048732933        2.54590258347847        3.36409526445639
C            3.18683818074939        2.00674127231394        4.95805155819719
C            3.48089983819513        0.62059061268421        5.46271083917648
C            2.31433679142831       -0.30060914076016        5.05970656956572
H            2.15725937073375       -0.25451722536659        3.98515808710034
H            1.39612268514973       -0.00041001015708        5.55621411923086
H            2.53381041151598       -1.32672316295301        5.34012763813064
C            4.78446554895321        0.08442178181352        4.85641264390014
H            4.70100625490896        0.03063983040932        3.77450891742793
H            4.98182429052409       -0.91269414516725        5.24057667200445
H            5.62147355420536        0.72946186480204        5.11099545631419
C            3.60990818289850        0.62545185921386        6.96445433445785
C            3.73380589137745       -0.43500317435595        7.83253835845812
F            3.77399444551426       -1.74633847769351        7.50209547623492
C            3.82567098171650        0.08262272169986        9.13680493917390
F            3.95974027468963       -0.64400313135917       10.26995482895813
C            3.75723930712346        1.45393897860198        9.05110446637495
C            3.82842151512159        2.48231528817057       10.14941246670261
C            3.22114102048811        3.81661638780519        9.69016515911147
H            3.83942155377554        4.27326976782089        8.92230838291821
H            3.17037719064231        4.49933837845060       10.53391988132116
H            2.21781657253947        3.66659686889728        9.30293916405596
C            5.29881270044209        2.69031113187314       10.53846919368676
H            5.86998322761856        2.99960740862645        9.66699182387618
H            5.72199213836982        1.76561478030140       10.92225424014278
H            5.38263134340029        3.45436887493487       11.30592701143183
C            3.03584416230628        1.95680377391019       11.31673188170176
C            3.32136777258757        1.84386559751346       12.65609783716139
F            4.45512674500280        2.21727695344826       13.29186917392722
C            2.20394384084328        1.26442175097340       13.28860076179883
F            2.12681038188611        1.00495465103455       14.61384035009492
C            1.24625520665813        1.03305775818007       12.32868551477561
C           -0.10338303160818        0.37208983015275       12.39230900600441
C           -0.05692454816826       -0.90687605721827       11.53564559932555
H            0.75910577654929       -1.54545163670915       11.86404969757631
H            0.09556341033400       -0.66328452703383       10.48817264568229
H           -0.99114961938182       -1.45329811060169       11.62702619905818
C           -0.46283448688665        0.00388794690402       13.83793121144171
H            0.25943707157776       -0.70306946245394       14.23631941935188
H           -1.44837064810027       -0.45303643491672       13.86311543053724
H           -0.47140053539790        0.88843230825534       14.46963370228636
C           -1.16670502187577        1.29219298279259       11.84974564368395
C           -2.49380899708463        1.03395070851902       11.59372057847395
F           -3.13815452635899       -0.13982303250995       11.78645319958347
C           -3.07773881648211        2.21646299610197       11.10593027966349
F           -4.37132466041095        2.36939526783727       10.74096954579778
C           -2.10078610058112        3.18429590557460       11.06895012071757
C           -2.20516513333942        4.62636630515681       10.64626689178416
C           -0.82252834335376        5.19492099703107       10.29228722774940
H           -0.93871827116895        6.18890825956440        9.86925638409592
H           -0.32475013622432        4.56255696580742        9.56320890974652
H           -0.20390009819307        5.27573778141671       11.18177897568853
C           -2.81938649156901        5.43597653420412       11.79694020333219
H           -2.87336612728130        6.48818109167200       11.53281866811901
H           -2.21101968183422        5.32614594325105       12.69093141843798
H           -3.82384066735459        5.08088918683880       12.01291432708762
C           -3.08660244940008        4.68063329914956        9.42666248108878
C           -4.16605814038882        5.46431784904208        9.09683306899678
F           -4.72245819479426        6.45345209657611        9.83230242434287
C           -4.61183010081323        5.07016088932229        7.81988822570918
F           -5.65860056695832        5.62958060539281        7.17124798195601
C           -3.79778750235996        4.05150189214683        7.38241435617111
C           -3.83047320227728        3.19692809759763        6.14510343445350
C           -4.07413495082976        1.73663031006040        6.56917766408309
H           -4.18329039407301        1.10536603796948        5.69205018831634
H           -4.97877795519987        1.66896421897460        7.16793473227482
H           -3.24176725482752        1.36173972395837        7.15753828941509
C           -4.95386788361193        3.64630711861671        5.20158400702277
H           -4.95552437146493        3.02086830352892        4.31304456646173
H           -4.81221316447596        4.68105986677929        4.90042643815865
H           -5.91772970378081        3.55409923993747        5.69424953954624
