295

O            0.26530843349115        8.54873716014714       -1.15125670852451
O            1.46393368220070        3.03907207257984       -3.42939029293246
O            1.48998983999000        4.50926547011635        2.37429546176459
O            0.77809798243679       10.10757842847224        4.68060346141019
O            5.82570100619577        6.94060237379454        4.89721925614468
O            6.52068491583307        1.41556588951923        2.70690238660556
N            1.74822186023624        7.33106066577328       -2.41729114395285
N            0.91457082903305        6.42868660397706       -0.56520249476147
N            2.40126474902929        5.13165610213252       -3.24311133924248
N            1.40957003903090        4.23388769318730       -1.47408945830125
N            1.14957973819078        6.70596825123762        1.80981129021521
N            2.61605453104311        6.22951811808049        3.40379587646336
N            0.88667795964883        8.94191343004585        2.70304945470332
N            2.34214060617781        8.46759587520718        4.30341819401520
N            4.86289396868128        5.37610236080237        3.51897351003147
N            7.01850636258065        5.82744075452999        3.28571283734638
N            5.09700016248052        3.21450795579677        2.48664715209879
N            7.29746886117857        3.56402350912790        2.48749563373736
C            0.91763229758248        7.54183053394727       -1.35225983940494
C            1.71956707734421        4.04499240878369       -2.78518494965630
C            2.55778991576733        6.13621040327207       -2.23065027974197
H            3.61526625388288        6.41383139708973       -2.10195322532920
C            1.92315871280784        5.47975404271359       -0.97479961545496
H            2.63670623957025        5.30011865480153       -0.15612943889413
C            1.73326648456527        5.69310502940650        2.51242201300701
C            1.27802023411414        9.25637360040895        3.97016700045222
C            1.75903853539589        7.98651792134809        2.08801658994332
H            2.20574738553839        8.39913607627768        1.16889310620482
C            2.78124690672377        7.65644239117081        3.20658400259701
H            3.82721067265909        7.88053524237242        2.95016302374274
C            5.89274128831491        6.13141457723823        3.98989242029277
C            6.32865978843694        2.60717271628318        2.57523194771868
C            5.22801474914614        4.63218513090652        2.32495098216333
H            4.66759314839713        5.00495359992507        1.45489791355075
C            6.75772388916119        4.87092165478816        2.23830029623838
H            7.09965514532898        5.26979334975782        1.26984243201441
C            2.71766265408701        5.31026293430518       -4.64995816244940
H            3.20834195472279        6.27914919916770       -4.76269662956116
H            1.78761628519750        5.31334947817313       -5.22595996256180
C            3.64096166797442        4.25638152092402       -5.20048942038373
C            4.81051104883985        3.91603735487912       -4.53152024021614
H            5.03250480611173        4.37493346617551       -3.57701934976533
C            5.69038336250092        2.99924758424228       -5.07726407328898
H            6.61242307334302        2.75341215736336       -4.57014478748653
C            5.41182065401322        2.42062158587137       -6.31132520948904
C            6.36216922930210        1.45104094418226       -6.92696727957630
C            4.25249833528457        2.77179585058062       -6.99201354387558
H            4.05253941702301        2.32312506325562       -7.95184300367328
C            3.36884775683418        3.67354204408809       -6.43148474760778
H            2.46390997522840        3.93184054971917       -6.95706727010109
C            0.48062959272604        3.38754142262784       -0.75395925079319
H            0.81050638823212        3.31590413302833        0.28432254578317
H            0.54155280898433        2.40338390345357       -1.22562461988942
C           -0.94203021296601        3.88960332514133       -0.82867968065985
C           -1.75472009110938        3.86265144350882        0.30145607214300
H           -1.37666755290189        3.44780299358268        1.22387904815595
C           -3.03585123280222        4.37989362309981        0.25975822945552
H           -3.65855358148639        4.38571251551842        1.14159764585102
C           -3.53625048062217        4.89424997943473       -0.93304769037719
C           -4.88991961895007        5.50661166399295       -0.95993221445495
C           -2.74236526383784        4.88465672323322       -2.07765005609522
H           -3.11260005255202        5.29884631754034       -3.00304904176659
C           -1.45160622351292        4.39545445259093       -2.01772247345017
H           -0.83654616653420        4.40164896964311       -2.90422747399983
C           -0.26976503496244        9.52972948537268        2.07002407140969
H           -0.05804185057458        9.66966377982219        1.00574303748402
H           -0.40735980679023       10.52013965519406        2.51701063823868
C           -1.53505472361698        8.72497974918220        2.24387227103015
C           -1.62448992257796        7.67178492027161        3.14591532261836
H           -0.77470093158882        7.41208133475508        3.75862664199709
C           -2.78993988464734        6.93735194985861        3.25024034747738
H           -2.85765050861509        6.10249326523988        3.93048135363083
C           -3.90388152725570        7.27189689955237        2.48598985554958
C           -5.12791641161745        6.43857407473618        2.62398096893821
C           -3.82641052370587        8.34203775501433        1.59740805890654
H           -4.66344118282733        8.58255273754011        0.96053286273834
C           -2.64600059320418        9.04786782305690        1.46960451514585
H           -2.57354196751558        9.85686987478695        0.75941643165911
C            3.04888802889642        8.59733452514157        5.56096254142149
H            2.85290177465104        9.61244040581630        5.92121994709831
H            4.11856497457408        8.47713149031579        5.37981483129894
C            2.57633476150994        7.60385010847697        6.59244950150100
C            1.21671802446804        7.41870267085382        6.81687028287267
H            0.50387563749491        7.99798060419738        6.25016259401389
C            0.77563061704192        6.51867493274543        7.76823583482175
H           -0.28589660716013        6.37291508050989        7.89729331208500
C            1.69840419783023        5.78280221647620        8.51048073890462
C            1.28678344692169        4.78457002604913        9.53023948051033
C            3.06134326499854        5.95777735930560        8.27722788670196
H            3.76350804643899        5.37317227782780        8.85149291849269
C            3.49609500244466        6.86685806536206        7.33205498528073
H            4.55254677507213        7.00401772369800        7.15613589190412
C            3.95233144872153        2.45679158639076        2.02428511981230
H            3.03995771555406        3.01100660989896        2.25727557581321
H            3.95041420178198        1.52255656446865        2.59365457805571
C            3.98537390950862        2.12003526420147        0.55218901134156
C            2.92659261899376        1.39680523142176        0.00899262416149
H            2.11039213499239        1.10394290236649        0.64992553570053
C            2.91794855007632        1.04125388767124       -1.32597697416214
H            2.09905820988078        0.46722895526216       -1.73107276085286
C            4.00037359292973        1.37002320921289       -2.13739643477734
C            4.09515956130636        0.90044818792258       -3.54195711407476
C            5.07187183636164        2.06929380830212       -1.59407030932598
H            5.92226597597394        2.29864600517690       -2.21690744875644
C            5.04904284204425        2.46557827131089       -0.27075587409103
H            5.88699871366777        3.02498458793603        0.11890793535317
C            8.70941070427213        3.24840456511821        2.46888584641742
H            9.19816762550839        3.87599794546243        1.71892882243569
H            8.78371428088926        2.19629307784696        2.17136620011142
C            9.37770164251904        3.42779510181602        3.80761466018586
C           10.65567216316015        3.97282040149369        3.87877083325039
H           11.14513559560561        4.29833728253289        2.97330685048140
C           11.29624491292101        4.10920631179029        5.09629893914822
H           12.27547610229382        4.56230937390457        5.12211390909977
C           10.65321986047308        3.71510672390691        6.26844412367398
C           11.27882028201939        3.85244833995517        7.60854187869233
C            9.36117234570933        3.19605339622080        6.19947341983309
H            8.87096926496121        2.90684053214900        7.11618721708646
C            8.73556866540668        3.04158012577141        4.97886739271135
H            7.74691265631559        2.61216603155605        4.92770265096048
C            2.03702847969846        8.41869281419892       -3.32191874985546
H            1.25183267476034        9.16250414635656       -3.15514868204067
H            2.01211930920350        8.07024340207792       -4.35755739955130
C            0.25716900978383        6.43869849910357        0.71664671477740
H           -0.51410340696075        7.20896258617092        0.65891428137875
H           -0.19575991016509        5.46749234440137        0.91720028287969
C            3.55619321230128        5.40646661592304        4.12227843449829
H            3.68518771337516        5.79743817851217        5.13494929106658
H            3.13647351004659        4.39835588714479        4.15119067792651
O            9.94559815620214        6.04982323020687        1.21695755710894
O            8.80932736566307       11.68154997372747        2.99836885889391
O            8.96356429383129        9.96189533851442       -2.62327859894760
O            8.91015328070877        4.25651892150738       -4.73617050227523
O            4.29404283291179        8.08200672331308       -4.99451145910679
O            3.92415150865664       13.27160249425977       -2.03071426048744
N            8.49358617013378        7.45905122363140        2.30990380009683
N            9.29446610341561        8.06720181003752        0.33577332921106
N            7.68174174583700        9.67746354821764        2.83961059747474
N            8.96416622205655       10.32944584539908        1.15052942317609
N            9.09379588582841        7.74332957499890       -2.03361507966176
N            7.60474047253147        8.36738395250235       -3.56016423545789
N            8.94150751493434        5.43717170889646       -2.76332658491319
N            7.56537073217389        6.08547170268657       -4.37485901313655
N            5.46238699872909        9.44840737862470       -3.56880779521003
N            3.33523084385198        9.00962074693444       -3.12855605622009
N            5.35143537443974       11.48410028107932       -2.30047529353700
N            3.19731004180492       11.09404720645990       -1.90499113298709
C            9.30483224714066        7.08154973368051        1.27624628483496
C            8.51810609801265       10.66823196619999        2.39305126925855
C            7.64041405643562        8.57856088041137        1.92630086799215
H            6.62281700023315        8.21563029988108        1.73422582715763
C            8.36403098466213        9.11366815309160        0.67017641501319
H            7.69441854553502        9.31539294031990       -0.18020040155654
C            8.58408262575507        8.81014507641789       -2.71985910109243
C            8.52033901271832        5.17308377143531       -4.03769940699390
C            8.26525613350003        6.56335994802664       -2.19362978808127
H            7.78581984372773        6.30476298915753       -1.23638888413608
C            7.26558528095758        6.98552884699354       -3.29991183149824
H            6.20944047210615        6.90650530156726       -2.99815518368129
C            4.35991334892955        8.77271226406458       -3.99401527467302
C            4.13415650899485       12.07740650971211       -2.07322125459888
C            5.26108403427375       10.05520134494421       -2.26727092805687
H            5.93721251538911        9.60710747702789       -1.52356198690490
C            3.76177019694266        9.78029859116592       -1.97874895337964
H            3.58941504067106        9.20597370675391       -1.05429534668900
C            6.84952003831724        9.85609923629387        4.01109882824334
H            6.65186662399699        8.87954697929700        4.46343638818580
H            7.42980271426151       10.46167162499391        4.71178237431658
C            5.53454199267110       10.54468424939851        3.73970398155362
C            4.79943510747749       10.30706264987277        2.58199440984716
H            5.17067185200390        9.63923770904483        1.81795029787207
C            3.59567701244883       10.94732654951133        2.37234474636085
H            3.03050976313998       10.77763490201616        1.46691281199495
C            3.08459680261840       11.84144321646968        3.31072667652665
C            1.79046182114025       12.49014694114946        2.97427799315292
C            3.81422261918888       12.07796298482788        4.47405128673652
H            3.47972677167939       12.77992788959768        5.22094989191669
C            5.02037864240809       11.43390866335534        4.67862659458315
H            5.58658355844987       11.64227661367172        5.57183434335608
C            9.97191980734786       11.07866617169661        0.43897998844498
H            9.66334617329230       11.17821513191139       -0.60602464193037
H            9.98467887689467       12.07038546706553        0.90114017362501
C           11.34994242557327       10.46419612146822        0.52253310704567
C           12.30127174363777       10.79163510937084       -0.44037802809831
H           12.03720302771022       11.47604951343023       -1.23146244707149
C           13.57057294971318       10.24889479188618       -0.39072670070507
H           14.31192508578726       10.50273902452750       -1.13101448303347
C           13.89581472540220        9.33960430529173        0.61177708149781
C           15.24147471035114        8.72243228180936        0.68095897799769
C           12.94608374158465        9.00359725798337        1.57209653325737
H           13.21216991246674        8.30106643431537        2.34674270966645
C           11.69160768428912        9.58004830824939        1.53923932893090
H           10.97223755060939        9.33903784449593        2.30767189703160
C            9.91058370180467        4.61224087106474       -2.06599416984528
H            9.64122417262021        4.57966688627675       -1.00758938000357
H            9.82847953584201        3.60926824106291       -2.49775574123905
C           11.32375596454471        5.11497926705878       -2.23177728177421
C           11.83155356877523        5.34780917109792       -3.50489972713879
H           11.22011869409424        5.12432114099189       -4.36570786540631
C           13.11048717568614        5.84359160604516       -3.67050441727763
H           13.47228509909554        6.04433761675976       -4.66722605947832
C           13.89635680932879        6.12876928352385       -2.55501321033629
C           15.24827857511527        6.72970580033061       -2.68246271220185
C           13.39417671299082        5.88989841436612       -1.27851615413980
H           14.00980868640093        6.11587607673010       -0.42066251729970
C           12.12332385411360        5.36919405307386       -1.12134172878804
H           11.74181485967082        5.17701827225408       -0.12993583112497
C            6.96583517393580        6.15967019298885       -5.68669016886352
H            7.06205790443094        5.16156265176471       -6.12901578115387
H            5.90387474221190        6.39470121912255       -5.57835162738637
C            7.62963159526109        7.16267423000695       -6.59553646682455
C            8.98182173812235        7.46006368808997       -6.48146144530058
H            9.56949447959252        6.98443779889962       -5.71115850733756
C            9.58268678917269        8.35468472020884       -7.34695510193584
H           10.62751590566117        8.58938291427114       -7.21280919958385
C            8.82895412507665        8.97407514003640       -8.34193505771561
C            9.41402208831883        9.95480356728996       -9.29163311822754
C            7.46648018796616        8.69577624367837       -8.44134841217703
H            6.89211837644681        9.19564267106915       -9.20557738724516
C            6.87511026332616        7.79299850919368       -7.58113051605871
H            5.82106660875952        7.57652095016162       -7.65948588816110
C            6.58695805997366       12.23186365257430       -2.18215620318462
H            7.41583610541862       11.57869452769694       -2.46641867826941
H            6.53573256216547       13.06443503103340       -2.89041499605439
C            6.84538592418454       12.79201379221552       -0.80418178643663
C            7.92456652393512       13.65319528752360       -0.61991480760109
H            8.55303369630804       13.89245266199006       -1.46322468541919
C            8.20138774800298       14.20004710300411        0.61856619614687
H            9.04366327202780       14.86870265883151        0.70747785775140
C            7.37840621321289       13.91193920946167        1.70644986643805
C            7.57382141200915       14.42979124538800        3.08522743397464
C            6.28786737812858       13.07022033104451        1.51380770304170
H            5.64532145086635       12.87283086194350        2.35578325520284
C            6.03738500479607       12.49822691112399        0.28429456337052
H            5.19295625361144       11.83257672871521        0.17959075594245
C            1.84846194122356       11.39390204304682       -1.47279558807613
H            1.38619337895184       10.46620078709958       -1.12255626124534
H            1.89011209288645       12.08942462058264       -0.62542915533286
C            0.98928853392094       11.99327705811219       -2.55467360902858
C           -0.17851112736902       12.65441355145324       -2.18441897594255
H           -0.42403617757434       12.73802040162732       -1.13668442363546
C           -1.00329478973398       13.20238589853243       -3.14318888071325
C           -0.66878412922568       13.10249949135957       -4.49385160001268
C            0.49962761792335       12.44339456106233       -4.86708451856523
C            1.31734062127960       11.89017989941561       -3.90052657809347
H            2.22532626251225       11.38589922080854       -4.19588898677417
C            8.24042572839751        6.57777571982175        3.41868019599351
H            9.09407077568357        5.89611730420062        3.47306286072948
H            8.15474972548407        7.15357518411382        4.34333174339155
C            9.98340437434049        7.95864386147034       -0.92362527010534
H           10.68126147276484        7.12439708593523       -0.83015268044834
H           10.52583686965937        8.88235195286221       -1.13886075313173
C            6.72825467748569        9.29241857292084       -4.23426615216834
H            6.50485056968761        8.92908691612777       -5.24095296386905
H            7.25550308613657       10.24753731239026       -4.28130747619554
O           16.18992525813439        9.46986382386384        0.14971196427374
H           -1.90993520100879       13.72070736464753       -2.87159221612082
H            0.76062183304263       12.36874358516926       -5.91045734273630
C           -1.56294740943559       13.71063176709389       -5.49895531021190
O           -1.13736222778560       13.58188390265901       -6.74825978174495
O           -2.60207470691839       14.28427807899468       -5.22803375953255
H           -1.74548881535484       14.00334390472628       -7.38629656629294
O           15.45838645944406        7.64988242399672        1.21376096558905
H           17.06138664587229        9.03127849752582        0.16843157541029
O            6.72660372245760       14.29912696903451        3.94525630989461
O            8.70397976781022       15.06217665305019        3.37504082329384
H            9.34869818370990       15.08624689523289        2.64631768199628
O            1.26387404906178       12.32604041329687        1.89017148118589
O            1.20405537996234       13.26371956148611        3.87207194711618
H            1.66786026507144       13.32494665922228        4.72614570381586
O           -5.28661646261015        6.25298247133416       -0.09182798219037
O           -5.07044267948973        5.25387529106826        2.88754433079344
O            8.75674642253106       10.83349786865175       -9.80837457195386
O           15.68636111360571        7.52032871482125       -1.87481803910562
O            5.13213648975608        0.41448052005023       -3.96321617901426
O            6.77268221880112        1.58342934085175       -8.06165198247185
O           10.62443972924963        3.97657190737480        8.62267617480496
O            1.97595845291073        3.82928558362095        9.82096924913793
O           15.98297698419869        6.37824514052997       -3.73456234765453
H           15.57591471842242        5.68730758769722       -4.28846485000580
O            0.11690510592832        4.96673930288821       10.13879897373239
H           -0.32858122709739        5.79978026408370        9.89958583617600
O           12.60773906705638        3.82875900160599        7.67765731306383
H           13.04698331628643        3.65130956130427        6.82595712712483
O           -6.30402305711915        7.03729275092305        2.50328802553535
H           -6.23558739681704        7.98209696012636        2.27780414961599
O           -5.66190737472196        5.23031149785488       -2.00763950751416
H           -5.28074740443895        4.57355447020141       -2.61907497547199
O           10.71016950220622        9.84313769852142       -9.57542071469864
H           11.13246038691284        9.05663006658404       -9.18518614644058
O            3.03793606840125        0.99537081777925       -4.31997369967678
H            2.31069433273727        1.56335921868640       -3.96373979663884
O            6.74636228153627        0.42741134684745       -6.18151798129430
H            6.23849595633830        0.33841269843625       -5.33701718195907
F            5.40948845723190        7.36533070636289       -0.22664517824501
