223

C            1.80160980369837        3.55702522737215        0.90532662970677
H            1.91262774772029        2.58379576285172        1.39834886741744
N            2.88701779171401        4.43589148929276        1.25144924462154
C            3.51898614531138        4.91674446731117        0.13788975522342
O            4.46143670490970        5.68786313853770        0.09768442941676
N            2.92083498295347        4.38267987803664       -0.96718778412369
C            1.83490978413919        3.50845085376158       -0.64085258123011
H            1.97886679131839        2.50883512049392       -1.07293443454954
N            0.53771483263576        4.03145041124111       -1.01955164651974
C           -0.24889576102458        4.28956175323524        0.06163343394476
O           -1.40968269107168        4.66175668008958        0.02038776178687
N            0.49017846056368        4.11076055191049        1.19112206709527
C            3.45541867066674        4.55583505609373       -2.29835675694603
H            3.20374824364270        3.68453615411487       -2.90088580298066
H            4.53775323523821        4.65927661048893       -2.22093311322439
H            3.05445027480413        5.45806521927238       -2.76572020813973
C            3.37891771564217        4.51639738929663        2.62774341151994
H            2.92866983211971        3.66320113186445        3.14718677032039
C            4.90087371759931        4.36974199964770        2.69700225902702
H            5.20794191745517        3.43406187003332        2.23499159000248
H            5.20735514682977        4.36925148265231        3.73939237922463
H            5.38585629904863        5.19275989197020        2.18078894174068
C            2.93530746077670        5.78808371834007        3.31829338375223
C            3.08101710634272        7.02890633783090        2.71180655647481
H            3.51478912681056        7.09045755984594        1.72595734113603
C            2.68314321311907        8.17953898706792        3.37080036322860
H            2.80192946274753        9.13852568960664        2.88835763845682
C            2.14162437735419        8.10436355578346        4.64293923678208
H            1.83310444710028        9.00339987696813        5.15528122920509
C            1.99913166205086        6.87155829887730        5.25680983714983
H            1.57727057586424        6.80366346904705        6.24863295609502
C            2.39399502923993        5.72017203025082        4.59779977824571
H            2.28318958269632        4.75635621851249        5.07550786823575
C            0.07229001161844        4.15048488277611       -2.37671624336279
H            0.90242883531430        4.47144325757952       -3.00824145994044
H           -0.72798309911344        4.89272432956440       -2.36814788124780
C           -1.74715032396175        1.05484241079952       -3.48156276195201
H           -1.85979857999617        0.15088966154505       -2.87129571839613
N           -2.84683590588203        1.19759764009120       -4.39746808277438
C           -3.44473900053845        2.42219889026298       -4.27452851236932
O           -4.38904546526908        2.85041458592818       -4.91443746886002
N           -2.80845051607831        3.12183800586458       -3.29051046938286
C           -1.74343792130268        2.38019482994522       -2.68347803606138
H           -1.89400751095730        2.27338634362966       -1.60056586017787
N           -0.43008770548685        2.92900200520371       -2.94949413141811
C            0.32616187303398        2.10338815432582       -3.72482140697477
O            1.48878833432547        2.29562329017849       -4.03931920761838
N           -0.44660682510296        1.05732564510836       -4.12846939709879
C           -3.29975608327358        4.38926020986115       -2.80052350634013
H           -3.05002358441630        4.48573118463589       -1.74512587598830
H           -4.38115451443007        4.41026139598884       -2.93499571939217
H           -2.86472600844411        5.21884542590473       -3.36240868003457
C           -3.39803028418627        0.03577093504783       -5.09806653615817
H           -2.94344624147371       -0.83637005899333       -4.61544138473220
C           -4.91630881182962       -0.05947015161245       -4.92910243380119
H           -5.17368803364681       -0.08932812774995       -3.87255482746935
H           -5.26779328216602       -0.96981951208471       -5.40681456271041
H           -5.40394868202526        0.79638052585095       -5.38616048278851
C           -3.02283563475505        0.02074441322112       -6.56412641857161
C           -3.21744741828105        1.13391854108222       -7.37165518303856
H           -3.63697881799155        2.03177995962584       -6.94556325367635
C           -2.88568478605353        1.08908187076396       -8.71488705136665
H           -3.04319303547688        1.96121431248687       -9.33230582976273
C           -2.36081293376062       -0.06741071692007       -9.26657316267403
H           -2.10423623131526       -0.10073856013748      -10.31494748204270
C           -2.16881835136854       -1.18281951348024       -8.46919561045766
H           -1.75985624535017       -2.08885881850642       -8.89120757963378
C           -2.49860079319768       -1.13879602477903       -7.12552321334108
H           -2.35013495489941       -2.00941191442749       -6.50152719818112
C            0.07033055072462       -0.03406859588577       -4.91180167535147
H           -0.74061136805489       -0.43571907557512       -5.52259475553454
H            0.85790029467560        0.36760589851895       -5.55084282472620
C            1.96654367633603       -1.18296265618739       -3.61737059742106
H            2.16515092257688       -0.29768236010475       -3.00184988222624
N            2.97439356199406       -1.33689504805457       -4.63236399797641
C            3.54838814814488       -2.57808153887058       -4.58591892810782
O            4.42440029142271       -3.01485312723428       -5.31114056215133
N            2.97863770393777       -3.28385465059213       -3.56522570827252
C            1.98905450199947       -2.52994748264324       -2.85409441808791
H            2.22914668106398       -2.46352615818709       -1.78511454411543
N            0.64261510676287       -3.03688646455818       -3.02746553346268
C           -0.14478284227468       -2.17518720267105       -3.72592656508511
O           -1.33077973137263       -2.33970399769471       -3.96625025489537
N            0.61261917321566       -1.12476341573753       -4.14117535851928
C            3.48601968630328       -4.56320987892424       -3.12753274028792
H            3.39111872579125       -4.63473879911160       -2.04462471645155
H            4.53482278947384       -4.62597039232021       -3.41725031689201
H            2.94463510182319       -5.38387630346952       -3.60314950569708
C            3.48511839634735       -0.17569193526591       -5.36426557247648
H            3.09584293542895        0.69892895086359       -4.83024721906355
C            5.01432638774041       -0.11606875587238       -5.33419955950981
H            5.36930961843439       -0.10868212918597       -4.30599971722841
H            5.34100837942219        0.79378316865671       -5.83002248118664
H            5.43744074231483       -0.97500993969074       -5.84636453301575
C            2.98032275317846       -0.12847297186403       -6.79064897895007
C            3.05183187451654       -1.23962039591328       -7.62090817099085
H            3.46984899639752       -2.15936483375873       -7.24287333279719
C            2.59985747935034       -1.16574061222412       -8.92734074445765
H            2.66085533315363       -2.03704037082374       -9.56278684605433
C            2.07877478487632        0.01851869368039       -9.42038628824625
H            1.72800378019654        0.07419951409889      -10.44011668016137
C            2.01003921673768        1.13232730456028       -8.60079875392735
H            1.60453883184056        2.05976976454513       -8.97718738925174
C            2.45881210776447        1.05920684164419       -7.29337738427550
H            2.40389489400300        1.92791234810966       -6.65166681054214
C            0.14484204313282       -4.26634479998247       -2.46349921442043
H            0.97069389167177       -4.97474060053959       -2.39014601745626
H           -0.63560233771740       -4.63278087933091       -3.13300500306629
C           -1.77022899133109       -3.57392237242570        0.69095573861444
H           -1.92521381782522       -2.57328165796799        1.11599182534683
N           -2.85186534557069       -4.45818367471158        1.03741427042731
C           -3.42285338441780       -5.01509442937506       -0.07506821402964
O           -4.35107946474111       -5.80373438990160       -0.11271837751754
N           -2.78148584396753       -4.53718501443294       -1.17935303385567
C           -1.73024781126003       -3.62023608519024       -0.85531300627727
H           -1.87424295057305       -2.65490237285246       -1.35650910004142
N           -0.40921138428842       -4.14133640701971       -1.14169562786913
C            0.33178804390144       -4.31281394702237       -0.01204919701932
O            1.49765334974562       -4.66872486450741        0.01693414608200
N           -0.45935082266028       -4.07081217019015        1.06942330851437
C           -3.24612914586268       -4.79166229553445       -2.52298488407387
H           -3.01125800195206       -3.93108507931138       -3.14727328620861
H           -4.32413245931738       -4.94722401249938       -2.48656952406874
H           -2.77912382897147       -5.68965278042231       -2.93377939129641
C           -3.40538459115421       -4.48850429940620        2.39256835383566
H           -2.98524580644051       -3.61265841606082        2.89955926503665
C           -4.93005802961792       -4.35200460176674        2.38469879505256
H           -5.22174937733708       -3.44330154950628        1.86263811223443
H           -5.28431196857073       -4.30282124289602        3.41061587205996
H           -5.38498447522262       -5.20384771595928        1.88825764554168
C           -2.98561598955235       -5.72821068171924        3.15423250278955
C           -3.07950525416802       -6.99354332207900        2.58938761074949
H           -3.46160073448904       -7.10101387087581        1.58648751020114
C           -2.69590739450749       -8.11127957888736        3.31066307816344
H           -2.77251485614910       -9.08928296105845        2.85867992406740
C           -2.22100774168605       -7.97891268810519        4.60444538403036
H           -1.92193216899809       -8.85208950336710        5.16492383526946
C           -2.13405374462948       -6.72181339429137        5.17820058893769
H           -1.76595441242635       -6.60926606609574        6.18719757833446
C           -2.51456321601195       -5.60306464454023        4.45740663689742
H           -2.44230027815606       -4.62007828885437        4.90165605346755
C            0.01369512195026       -4.18700809129676        2.42498927742859
H           -0.80370007107121       -4.54541209194670        3.05354529547785
H            0.82774912976858       -4.91412576206969        2.41995745220569
C            1.80654281733386       -2.39017628874802        2.78053608304628
H            1.97092431940697       -2.25434905237289        1.70342713139889
N            2.87921302001445       -3.14177959614929        3.37804253681777
C            3.44847364985012       -2.46304003111931        4.42181217581253
O            4.36833058067294       -2.83380509330805        5.12984376177172
N            2.81697034227764       -1.26201267109270        4.55623300282637
C            1.76814394126361       -1.07742733426008        3.59931750281943
H            1.91530659847927       -0.15872213760165        3.01748195701531
N            0.44578436492439       -1.08943101516793        4.19154524002105
C           -0.29933176746469       -2.14511794370468        3.76133378512989
O           -1.46862441560743       -2.34243004736457        4.04584508979014
N            0.49051483747805       -2.95953185798738        3.00903627876641
C            3.27304643419121       -0.23497863668608        5.46308861292501
H            3.06223910541368        0.74074135151614        5.02794226526939
H            4.34620490721433       -0.36037131535476        5.60468621126428
H            2.78128295873526       -0.32431212723215        6.43439576998425
C            3.43399557857528       -4.32722359394983        2.72096854742325
H            3.02002922788883       -4.31970862865482        1.70632475763081
C            4.95962915560152       -4.25593415783659        2.61720317219136
H            5.25791157823603       -3.34724978676483        2.09881485846653
H            5.31500149592536       -5.11755321914848        2.05875219087500
H            5.40798367845311       -4.25957202143035        3.60615720723651
C            3.00701537126709       -5.61094163584924        3.40142190119355
C            3.10784841642990       -5.77059832152949        4.77740197591516
H            3.49914734145385       -4.96514350067940        5.37872352272815
C            2.71906738348570       -6.95812892467351        5.37350632700464
H            2.80159720651267       -7.06877544171085        6.44475903361929
C            2.23117608757821       -7.99985529226234        4.60296229540097
H            1.92738077195237       -8.92472801004253        5.07025619501894
C            2.13707444968710       -7.85203270927115        3.22956461362076
H            1.75857147214615       -8.65953983793076        2.62048514577521
C            2.52361364493150       -6.66468796003624        2.63224733502443
H            2.44673519534186       -6.54567907905709        1.56042570095589
C           -0.11212524484790       -0.00577986833717        4.95637306732245
H            0.66765795877856        0.39985729444711        5.60337281429058
H           -0.93433936843404       -0.42426433042074        5.53807538817867
C           -1.93824206384617        2.49124407405676        2.81589465463853
H           -2.10841263939925        2.38153612346508        1.73832719310149
N           -2.97604845189512        3.28286855766615        3.42006806815040
C           -3.56033780752485        2.62609964421499        4.46959873381007
O           -4.46213682589317        3.02920222592758        5.18247316875849
N           -2.96551820843861        1.40498334581134        4.60581759235775
C           -1.95480328110383        1.16708117706217        3.61796507254932
H           -2.17236653972342        0.26347987858667        3.03409897681384
N           -0.61712449814588        1.08981303040041        4.16827301684092
C            0.16060147557097        2.13507833882365        3.77699514618825
O            1.33917097877645        2.28250691914692        4.06050102518406
N           -0.59850609219397        3.00124976541656        3.05342171659973
C           -3.47075199177563        0.38925301940380        5.49946845892879
H           -3.35699485093319       -0.58806890092794        5.03163494556122
H           -4.52456370001070        0.59741556926170        5.68350428639507
H           -2.94029801707326        0.40806553538182        6.45389225887145
C           -3.51102305901521        4.46371541808680        2.73749156301791
H           -3.08831543821355        4.43170827304909        1.72660523813355
C           -5.03645632227538        4.40743225834223        2.62353494857198
H           -5.34135354816241        3.49498805481720        2.11560918204536
H           -5.37939504694193        5.26459329607308        2.05070531537730
H           -5.49147209228938        4.43017580089565        3.60925974678343
C           -3.07312969243022        5.75501573261098        3.39491671260128
C           -3.20953932152816        5.95374206345320        4.76277680871157
H           -3.63018055906823        5.17076730407651        5.37401559465677
C           -2.81885242198416        7.15133328010562        5.33688147039510
H           -2.92979959500433        7.29346205459775        6.40184299519708
C           -2.29405317771576        8.16397494964403        4.55181725574400
H           -1.99060489647782        9.09751902421460        5.00171929423395
C           -2.16070714808880        7.97554224961153        3.18665922159981
H           -1.75156564549554        8.75976659021631        2.56707011379184
C           -2.54799556176404        6.77754916226356        2.61139996783819
H           -2.44144753018740        6.62784945223376        1.54582338180792
C           -0.07099997956467        4.22829988984833        2.51156596743820
H           -0.87653110034987        4.96213516126376        2.45773128339066
H            0.70965886307974        4.57705443726862        3.19042252452759
P            0.05013388233454       -0.03026318983697        0.02577119607849
F           -0.44125996678703        1.47815481508042        0.33441436248026
F            0.54449149378158       -1.53498442827302       -0.28861699774163
F            0.54285043870124        0.43660091852736       -1.44071757531960
F           -1.41414979585874       -0.38055886502807       -0.57247259025637
F            1.51309704686784        0.31886502364562        0.62728521748065
F           -0.44734982252376       -0.49103378933080        1.49199165171726
