289

O           12.38793016999144       22.51460083739365        6.80119816127259
O            7.82617846623854       23.85298553074579        7.64695622880040
O            5.55841462074219       23.15315621676514       11.70384161767042
O            5.54153613315732       20.78772616562963       15.83812722902471
O            7.84932238283077       17.68792132657383       18.50448639073952
O           12.44668099977377       16.41056072572368       17.70211963131402
O           15.07807495067497       18.08855136181929       14.20107504111669
O           15.06690331647073       20.43947724533362       10.05868254968068
O           10.92458101101396       17.71097680712387        6.61580473980948
O           12.43970711540829       16.65540157612323        7.98315318618429
O           12.45255166425734       14.31179757354619       12.09976192751843
O           10.95903915542523       13.69228739648018       13.73819508677093
O            6.46519868853728       14.96658139952500       14.50635523363153
O            5.09606384482001       16.40682791526220       13.35017787665554
O            5.10863163038364       18.77499506191827        9.24426764919049
O            6.44554457369692       19.02255873297117        7.39299841505020
C           11.11449445774166       22.83016695558096        6.38186563212631
C           10.04482488387959       22.94752955778394        7.26465772724764
H           10.15680147610531       22.67142806818094        8.30352338848693
C            8.85153195351782       23.49410236455329        6.80094254612261
C            8.70781028282423       23.84862088444757        5.46428345650341
C            9.76514125409582       23.69103001254165        4.57843616344521
C            9.59927381666332       24.04340337338753        3.12145978764493
C           10.97118921727963       23.18629473325927        5.04546578329471
C            7.23948410269434       22.95727201855934        8.49644519076230
C            6.70012572746537       23.46343413725117        9.67164981048390
C            6.02515636656494       22.61105955215319       10.53685047717767
C            5.88438231055788       21.26746745046545       10.21761463182289
H            5.38061565817994       20.59182539305115       10.88803323408164
C            6.41510923152761       20.77925950564397        9.03672473877957
C            7.09964992820248       21.61325739665307        8.17105236451050
H            7.50485335153463       21.23295155979291        7.24712428263764
C            4.89413054474705       22.32178337281539       12.58869831691815
C            5.52964861087458       21.97383228619710       13.77280307112050
H            6.52379896056156       22.33442727434918       13.98421630991486
C            4.88522202560378       21.13061678756830       14.66748064421718
C            3.60911985976416       20.65543595581237       14.39447526636577
C            2.96777211140674       21.02026157338709       13.21563920424926
C            1.59961280874978       20.47021996051712       12.89664572356425
C            3.61845494549267       21.84869614124949       12.30810434624487
C            6.01547699836901       19.51177827867123       15.96597205017485
C            6.70762954787080       19.21363748350979       17.13349038104466
C            7.25815447110373       17.94991322991729       17.29906122125439
C            7.11488700219942       16.97773228963170       16.31635947525265
H            7.53060359200593       15.99301542518116       16.46048606681968
C            6.40985428894112       17.28322504373425       15.16560345033162
C            5.86612471035167       18.54290454556814       14.98278022629964
C            8.92533533717099       16.84593410742641       18.64499466087877
C           10.07824920446809       16.94570095175608       17.87028362659793
H           10.12023956032276       17.62217286024411       17.02819284929127
C           11.19938468735530       16.21058222678061       18.24566656963164
C           11.14659804744948       15.34181185653269       19.33078667256416
C            9.98313905079668       15.21796232206730       20.07689042433034
C            9.91906819355454       14.26009175896023       21.23979205021919
C            8.87490614117930       15.97777208963257       19.73092052985836
C           12.68703026158689       16.42644648400985       16.35724936518262
C           13.72431509588678       17.23901711942776       15.91961835175869
C           14.08249495553683       17.23019717865346       14.57731025336906
C           13.41214505772099       16.40349444875448       13.68602812792873
H           13.67222921084504       16.39396288683109       12.64045270591930
C           12.38558974983253       15.59115816154512       14.13637015199959
C           12.00862896621212       15.60127605830417       15.46802986023751
H           11.21586136620354       14.95896386164029       15.81757077107757
C           15.44319580742834       18.13687852029297       12.86659061605479
C           15.07990538943633       19.25176255167217       12.12368611904754
H           14.50514898836547       20.04389525092849       12.57665231257628
C           15.44028373741232       19.32292675153433       10.78516944914626
C           16.17354150731162       18.30010054799310       10.19738704496165
C           16.55352564969078       17.19413054913515       10.94945430144548
C           17.32322790354117       16.06755683058741       10.30589664600923
C           16.17681758111676       17.11061414044275       12.28550493348505
C           14.06363725647573       20.30568523275155        9.13718884278653
C           13.69963882404096       21.44803932059484        8.43464950008567
C           12.65414646393707       21.38539634493299        7.52347255661294
C           11.97773379345936       20.19157071349277        7.29985316954033
H           11.18059037156015       20.14650600143857        6.57529321546228
C           12.36008625829236       19.05927040463648        7.99673082299236
C           13.39199256775017       19.11100715247321        8.91748285147733
H           13.65426257197210       18.22217506939104        9.46718300724536
C           11.58760776303875       17.76629537045229        7.85050269844144
H           10.84346500600651       17.75092617486703        8.67151756741808
C           11.89936401531111       15.60400251022825        8.72342898932382
C           12.39205786476414       15.41924113231099       10.00410230347058
H           13.15369686582173       16.08506769775073       10.38164536478772
C           11.90602747347806       14.41011682329258       10.81794456641371
C           10.90072761015390       13.56029326813054       10.35480130069755
C           10.41091797258872       13.78012283318660        9.07568914424555
H            9.61309111379912       13.15397733385913        8.72321582993857
C           10.89298185096262       14.77073709686169        8.23327356575859
C           11.61046612532815       14.77682126442002       13.12340985281156
H           10.85388942227685       15.45684440808396       12.68810609864373
C            9.62832774372119       13.59438330981230       13.33553434825790
C            8.67393810113752       14.18625574764612       14.14018186273958
H            8.96865574413385       14.66510647118932       15.06158381084875
C            7.35728250059244       14.23682245873520       13.72541118397320
C            6.96852850064462       13.68095263448234       12.50724902303559
C            7.94623554538232       13.08542775563776       11.72444712552033
H            7.66783547511034       12.69215875384593       10.76377573300318
C            9.27780912416657       13.02813157434007       12.11182895757417
C            6.31592068881301       16.28463666732388       14.03292749096486
C            5.20747734615946       16.33437021786760       11.95853178728494
C            5.10846846045525       17.52199152916521       11.25502304846319
H            4.97040007260785       18.44922815236595       11.78945726823607
C            5.21458821807897       17.53615110081346        9.87508690859469
C            5.43183751329902       16.34907084030111        9.17308809271440
C            5.55650097782104       15.17479526998228        9.90288821256807
H            5.77231169438541       14.26031256899470        9.37999127882841
C            5.42876326479024       15.13192265918923       11.28482349799247
C            6.32307136995899       19.29351500093940        8.76587545582540
H            7.16276170239475       18.82110773437214        9.31318896456581
C            7.33237362955055       17.97918778039887        7.14042070057149
C            8.64618476146779       18.31134477437576        6.87353938070202
H            8.94478664970524       19.34745718038113        6.83530322120732
C            9.59483542213115       17.31493275975458        6.75020167936077
C            9.24409128559490       15.97095740438269        6.87004674452720
C            7.91095633281372       15.66413453108065        7.11322905814107
H            7.63034407806222       14.63392878094477        7.24508872799700
C            6.94041562418439       16.64656839441153        7.26345883273601
C           10.35646067217265       14.94280929767230        6.82426190772410
H           11.16917377292484       15.38889274497803        6.23788204305010
C           10.36838622707742       12.44622117886893       11.23585278164372
H           11.18740438489334       12.15144733391214       11.90380664777978
C            5.52592078533611       13.83973442481635       12.07069736702218
H            4.95698616350100       13.98762896672146       12.99549891251623
C            5.50528977868704       16.36690773258593        7.65870907529048
H            4.92396366833796       17.24071946819534        7.33932879514956
C            9.95950876129065       13.60890054524025        6.18513378431159
H           10.80675762961571       12.93289892664631        6.29794464866340
H            9.10003149336225       13.19062983302079        6.70041671918423
C            9.62161247871130       13.78135572679769        4.70268657084227
H           10.46869428058462       14.25019687858104        4.20369648940319
H            8.77040980066183       14.45518869228821        4.62689122317048
C            9.32704694374459       12.40413631212262        4.10342906841289
N            8.76939316952660       12.40452749938983        2.72401957770522
C            4.89577689299921       15.11656918316300        7.01774413729936
H            5.55523862285910       14.26274569475166        7.13671134822580
H            3.95765955026866       14.91154943642800        7.53167784886276
C            4.61766865537126       15.35719886160140        5.53186027172077
H            5.54891758602963       15.63444295239035        5.04030072502516
H            3.93762984110492       16.20378394306773        5.45252975196404
C            4.00930702240210       14.09544276256169        4.91351092794776
N            3.28004697764805       14.29556041209095        3.63145410796630
C            9.88338583401424       11.21557460703599       10.45761945279220
H            9.07985147262862       11.51462365106113        9.79267837713047
H            9.48798337378489       10.52396462675975       11.20126731775131
C           11.01637743654530       10.57399454781497        9.64774738502570
H           11.58589243383983        9.88892206161134       10.27331900305689
H           11.70908235424769       11.36588227153926        9.35615019379945
C           10.58927870258774        9.90998436077231        8.33628411850220
N            9.77806340452318        8.65726163393798        8.40331483415341
C            4.98196189118929       12.60324477729143       11.34007386680246
H            4.95643159922091       11.79139045752558       12.06728931691475
H            5.66210476597312       12.31064049931849       10.54627563219862
C            3.59465501287063       12.79845513566559       10.72034868434414
H            3.67376438481192       13.53597367759792        9.92612121136970
H            3.29777177899852       11.83805118087741       10.30277768238901
C            2.57791272854365       13.27127066730072       11.75610661867613
N            1.17461305344899       13.34821214859340       11.26153036068237
H           14.24596692806873       17.87549772748581       16.61483064751311
H           14.22110496516293       22.37564638739258        8.60275331364911
H            6.81237017561881       24.50672958385460        9.91596800047112
H           16.41813014648395       18.37768551319481        9.14947727386180
H           16.42539488046182       16.24999685884809       12.88686423453067
H           12.03859912955349       14.78691777776643       19.57114199730292
H            7.95579087407267       15.92999086071211       20.29153978914956
H            3.14665081468987       19.98737379636459       15.10423788592110
H            3.16409159713591       22.12086247291282       11.36815827333008
H            7.75983596291113       24.25478527458946        5.15132532831310
H           11.82571502412857       23.06653766801662        4.39968722601621
N           18.80691017571323       16.21350300003676       10.37344098468339
N           10.32138336263418       14.85133979783283       22.55020403960551
N            0.46446850311384       21.31928004784709       13.36322157739839
N            9.93923362478167       25.45684031887434        2.78329174533001
H            7.14604859240820       16.51970490539944       13.33974914302295
H            6.82297176997468       19.96077382206989       17.90106287725664
H            5.34578227333339       18.76371813152258       14.06611095030460
C           19.41110231279385       15.04303762388006        9.71276529696241
C           19.25823295741862       16.26328574108281       11.77257936165874
H           18.83570540382683       17.12928785793518       12.27620849728689
H           20.34247800180627       16.33701606808174       11.80890175198400
H           18.95503349525353       15.36121185360023       12.29821008150164
H           19.09874182167664       14.99339450353854        8.67278690826531
H           19.11343570242165       14.12796462577112       10.21848970499973
H           20.49521948728400       15.11840530370166        9.74525233284059
C           19.23912024938146       17.43507266530479        9.67693750509800
H           18.92031870065831       17.40794431874263        8.63799703701529
H           20.32340768346872       17.51195360170955        9.70466568815506
H           18.81823296330311       18.31423967738909       10.15846558359530
H           17.04250295895666       16.00462484168160        9.25351396112617
H           17.05759065791066       15.13194594843987       10.80020029665184
C            9.73826393916231       25.64125871115753        1.33552360854059
C            9.06455802792508       26.38747520327581        3.51302964606905
H            8.02317121288348       26.19430641342872        3.26818408730387
H            9.30001895655598       27.41190088290690        3.23454119081259
H            9.20826830211335       26.27797622428404        4.58493473676554
H           10.38487349353392       24.97127213248819        0.77435853260731
H            9.97617419154633       26.66440335456458        1.05471731640392
H            8.70347013660612       25.44232940605974        1.06825965401633
H           10.24388687128682       23.39603553056673        2.52565285670722
H            8.56138842943517       23.87442991919220        2.83185005623736
C           11.34290746370203       25.74440212709700        3.11558828277466
H           12.00300828883768       25.07085049385093        2.57487148869257
H           11.50938327205486       25.62846801172017        4.18358954206030
H           11.58782652669793       26.76608745123976        2.83519229159446
C           -0.79157311110401       20.64485301861355       12.98970830037637
C            0.50803421407788       21.48229023698735       14.82448059412000
H            1.42106464801011       21.99205176903429       15.12237582732286
H            0.46506589814218       20.51249086904278       15.31381309983407
H           -0.34081530141330       22.07512520107285       15.15685086864611
H           -0.84591677610180       20.51997277848997       11.91138532577883
H           -1.64183738067900       21.24159493180586       13.31075792008751
H           -0.85386418866430       19.67184674432967       13.46996640232669
H            1.49764147215435       19.49252646383195       13.36917377572957
H            1.50922719918812       20.35960404071889       11.81518321886544
C            0.51045951832566       22.64206909451752       12.72162174610390
H            0.46739014953230       22.53773175290082       11.64042136744008
H            1.42388424093408       23.16456558869575       12.99505700571432
H           -0.33762499556115       23.24061516053707       13.04567616136958
C            9.44061940405322       15.97582606190542       22.90152574186214
C           10.20208151579328       13.80534042850359       23.58067680047333
H            8.40778500017716       15.64094280393325       22.95467048979689
H            9.52394285585013       16.76512581832662       22.15883191022314
H            9.72415320504994       16.37784752390879       23.87120072519344
H           10.85065630734416       12.96508012082132       23.34538346900865
H            9.17604053127063       13.45174915361616       23.64519746736631
H           10.49170008020671       14.20427586169425       24.54984785770450
H           10.57870590075554       13.41474929235782       21.03979087383630
H            8.89684247310982       13.89336372932647       21.34083250563381
C           11.71445704945682       15.32081022312740       22.50010824351317
H           11.82162096106758       16.10341467699200       21.75334165552803
H           12.37973517898113       14.49705394375350       22.25368019383596
H           12.00423830273637       15.72108676911897       23.46868898705437
H           10.25530713812738       11.83186353240662        4.08874985257447
H            8.60838393028954       11.88639485709269        4.73965593586322
C            9.60968629279023       13.19728981615085        1.81295969247024
C            7.39899216962568       12.94309028862443        2.72897303100268
H           10.64172774764409       12.85697502905974        1.85667882289261
H            9.57461508267313       14.25039633328099        2.07732285265638
H            9.25985036987748       13.08648303045524        0.78888259133796
H            6.77589549105649       12.32002553739530        3.36573296834875
H            7.00337683924086       12.93053602072650        1.71555700364908
H            7.40879698790655       13.96662278133122        3.09337089529260
C            8.72568611025011       11.00912614973439        2.24775933862717
H            9.72900512115580       10.59438792571341        2.18834955913625
H            8.28641287954012       10.96364843243916        1.25389265230396
H            8.12961416514645       10.39725172512370        2.91982482849473
C            0.62355286365293       12.00242757083199       11.03163504563230
C            1.10312168460559       14.12494933093755       10.01180521589962
C            9.76515884222474        8.07285993731734        7.04821569547140
C            8.38360385076293        8.92710046318931        8.79318104212213
H           11.50499129861816        9.66526247572414        7.79701814158961
H           10.02441126286182       10.63326808425031        7.74802520381228
H           10.76955233838752        7.79171309059528        6.74143614460928
H            9.36530294508598        8.79240181222434        6.33899380244309
H            9.14686049463752        7.17858744419977        7.03149590558473
H            8.33607410164689        9.29348758096754        9.81210733405006
H            7.80623118493293        8.00690741648850        8.73809784674526
H            7.94689214045183        9.65510008714260        8.11654973339562
C           10.36803496728816        7.68821380580238        9.33769371284415
H           11.41604937947128        7.51922764114332        9.10065517119676
H            9.84402442911337        6.73741714811450        9.26960166551708
H           10.29145104000307        8.04580699113743       10.36092622030045
H            0.64286237596654       11.42316789166499       11.95178038120816
H            1.19706413255880       11.47768147815651       10.27394780193153
H           -0.40845557339955       12.07603284430371       10.69666863842234
H            1.63459831352502       15.06627884312512       10.13046192339767
H            0.06346173413413       14.33378966708487        9.77099195954191
H            1.53858243782044       13.55505342812600        9.19768145851556
C            0.36606937718070       14.02422548230243       12.29030660604377
H            0.43433163445845       13.49316512203433       13.23728350692213
H           -0.67878069470975       14.05335551298213       11.98944984194331
H            0.72111710954916       15.04164106846853       12.43516433572664
H            2.86075613393142       14.26956540836173       12.09414117396213
H            2.59467306913314       12.60342451607466       12.61906465121960
C            2.95365281625294       12.96728277582464        3.08032019144695
C            4.11286966307467       15.02364253639232        2.66172104996621
H            4.31714410726052       16.03055674913356        3.01341506276238
H            3.59539916140892       15.09654483962569        1.70777778223870
H            5.04867615906597       14.49498770081189        2.50986219386130
H            2.36836610626768       12.39363647900058        3.79454126341303
H            3.86243447285972       12.42196271235266        2.84189276170124
H            2.36876276105559       13.07094936756922        2.16936129934931
C            2.02543265744738       15.03084503306529        3.85809983984558
H            1.38661723318989       14.48314959385731        4.54635677901934
H            1.48939306752528       15.15553612413576        2.91992577681350
H            2.22312555540174       16.01820574807914        4.26512593862915
H            4.80198769345243       13.37074138445535        4.73324830629246
H            3.30079272765854       13.66292148822961        5.62051567384557
Br           9.26376080961449       17.62432548228614       11.45595465669888
