203

S           -5.99035593521633        4.52923678687861       19.32588851333681
O          -12.39635747641776        6.87145629559893       18.16607625700205
H          -12.96809696047586        6.48648978610823       17.47407944312236
N           -1.31981250918102        3.77706050103921       10.34325790848975
C           -1.84144851449758        3.76233518872102       19.21469257273278
H           -1.28756075383934        4.42612424603756       19.88446609850537
H           -2.36118706625190        2.98826959429173       19.78725574574587
S            2.55473165213596        4.23738855636233       10.71932071829238
N           -3.21377006789115        5.30953074759941       10.48148935151999
C           -1.14558949261855        1.77765885247799       17.97808697498727
S           -6.58669352943800        5.80994603436439       10.52220372658130
N           -3.84800048638941        6.88990764232072       11.89540617679239
C            1.16741196888256        4.36580711828827       18.49455897964684
H            0.70189735367742        4.92977577845264       19.29766929371555
H            1.79714456470582        5.03435123116409       17.90593906192646
S           -3.09896372539829       -1.94849839815751       13.80019118482743
O           -1.65789666743403        6.56190922396124       18.82922766194239
N           -3.22381325475740        8.15930752280130       13.86923692701629
C            0.15035805533432        3.67017353827662       17.60077997724234
H           -0.26118729799419        4.38445984966151       16.87156505106470
S           -1.17076012365882       10.51021674328840       14.65685751467099
O          -10.87326873637444        7.03990878417214       16.55509779118854
N           -3.16411263036152        8.13377121938851       16.08101887336720
C            0.81634833818946        2.44381430604551       16.91737798847861
H            0.86275229326070        2.56340849408471       15.82823423314390
S            2.18748429188841        3.03678487241840       19.15470096296298
O            1.13561030252973        0.39023636494230       14.08351599578726
N           -3.70824014917663        6.46582780607317       17.78810128357971
C            2.24420402455954        2.28883717038086       17.48493514944505
H            2.89779024898223        2.94162993591766       16.89573468799589
O           -1.97323158326402        7.24329986177947       10.61905032083902
N           -2.80334918886857        4.59442123937684       18.54886891946581
C            2.83101011940496        0.88895198036752       17.51800608096450
H            2.84714252133091        0.50114963106168       16.49609299122828
H            2.20289972102240        0.25031878789219       18.13990269430536
O          -10.40874713694890        0.43000601776467        7.99512666586462
H          -10.96274015988662       -0.25142642826467        8.42345222029628
N           -0.92624173154625        3.06433788499722       18.35828223878724
C            4.25127841627493        0.90159707941039       18.08162859671282
H            4.87323845425052        1.56181755978952       17.47428938285680
H            4.21652476633788        1.30441928710008       19.09635067901717
O           -9.33388883658612        0.52307462974089        9.94006874328944
N           -0.08542800857750        1.35162021801648       17.23825972888340
C            4.86418107689976       -0.49663623086242       18.09326880361967
H            4.92197309622405       -0.86865747363633       17.06881691611275
H            4.22548695969810       -1.16552196097728       18.66937558977375
O           -2.59551726638210        1.86372686262141       10.33741692180686
N           -0.80799670367982        0.07865156852922       15.27523291579183
C            6.26286172083238       -0.49162258211236       18.70344707804574
H            6.62190769504425       -1.51560516139492       18.82811593461241
H            6.26314315896432       -0.01889893397291       19.68591161994535
O           -8.26310580245121       -4.07737600812790       18.31057108686764
H           -9.17745551856255       -3.78124131822406       18.48768946698494
N           -0.93362374623867        0.39856666869876       13.08909941897798
C            7.27647817058272        0.21514980752456       17.84453700806042
O           -2.10332592579034        1.09454937365572       18.31633638753233
N           -0.49144571519395        1.94895872072754       11.26714002137689
C           -0.14548050908814        0.08376826334337       16.55709604187707
H           -0.66499925625544       -0.59247359263078       17.23542374740665
H            0.86767019980877       -0.26182261398016       16.35236658022851
O            7.15446172848127        0.46755854297911       16.66505173071127
C           -0.08297900671346        0.33389750984868       14.14902410105215
O            8.36964460894000        0.52779715705852       18.52619771038033
H            9.04496584155150        0.97051694190956       17.97654836849205
C           -3.25047267130447       -0.43072028431029       12.84764550914501
H           -2.99891354393147       -0.60671485338817       11.80593958602219
H           -4.27936082888561       -0.07251764560703       12.91175155555737
O           -5.19802190394029        7.94410349664925       15.01885450963680
C           -2.30508611795416        0.55948618948331       13.51755018482496
H           -2.65220101786291        1.58626992533483       13.32128560346760
O            2.05858443490058       11.74598476611672       19.64731254341242
C           -2.22846997324869        0.26317831696330       15.04164603604092
H           -2.59351301583462        1.12000779904235       15.62663420953457
C           -3.11909052188372       -0.96038421453328       15.33640008047950
H           -4.14046225150482       -0.57681079049587       15.42880991721063
C           -2.77479272428043       -1.80682589201611       16.54999087724474
H           -1.78906764563937       -2.24725437245157       16.39627181298977
H           -2.75508522923273       -1.15004565866868       17.42381935809362
C           -3.78091966829616       -2.93794596620615       16.77503571061797
H           -3.83014853620180       -3.54365376659162       15.86822873243335
H           -3.40506896909775       -3.56026398041806       17.58732674524938
C           -5.17543535378873       -2.43766611940486       17.14049893967968
H           -5.63126063033117       -1.92071151095828       16.29440251690772
H           -5.10504482742994       -1.71675932285910       17.95845368280699
C           -6.09425098143629       -3.58348150751070       17.55173061456425
H           -6.15287804345356       -4.32708858836722       16.75424580194116
H           -5.72198485559323       -4.08903329945111       18.44360958104623
C           -7.49356350170334       -3.11119225131046       17.83376383963484
C           -0.45878402581779        0.59637716814580       11.74839320947032
H            0.57768359332674        0.24715699166856       11.74797979439155
H           -1.07077264436479        0.00928730146829       11.05737001621380
C           -1.58522672689276        2.48062993154109       10.64751164989901
C            1.87528316903505        2.68341494558822       11.36290314123432
H            1.94322078268837        1.92581317907294       10.58290460179554
H            2.45344825558941        2.37016167335685       12.22813428549896
C            0.41935850055072        2.98525136578016       11.70725739164225
H            0.31111311033205        3.14406908809601       12.79090797239478
C           -0.07094756994942        4.22599584888630       10.91872336235186
H           -0.25834241105330        5.06826170130824       11.59581243660448
C            0.98651902221162        4.62902210217168        9.87712639320000
H            0.98412861512149        5.71085930599367        9.73267671143828
C            0.90132444244363        3.90289895117709        8.53599374965837
H           -0.09929154306422        4.02726955183063        8.12152591640490
H            1.06346645650906        2.83605506097120        8.69500658471079
C            1.94029542265252        4.45087970163717        7.55692397628825
H            2.88517917178933        4.54412301496662        8.09688838542447
H            2.08508096046454        3.73275972752567        6.75088031238236
C            1.53945092064967        5.81210212318186        6.97176806581290
H            0.84645489325222        6.31929994549944        7.64593439478872
H            1.03316392158084        5.67271110497634        6.01763350510761
C            2.75239381911872        6.71998172405044        6.77959308194439
H            3.55684127567431        6.21337633491552        6.24836288807687
H            2.46720599554416        7.60649930250273        6.20859763386047
C            3.28464380601922        7.21469607479701        8.10036588513006
C           -2.25631359941844        4.62120948840493        9.65264980397831
H           -2.78726933265651        3.98370350210614        8.94447119732480
H           -1.69925654456142        5.41227361319510        9.14315750643010
C           -2.89567487738781        6.53520771293740       10.99153768531412
C           -6.13758557891112        6.02659998012419       12.24970442600049
H           -6.39286995100617        7.02584939401333       12.59090919513515
H           -6.67879092686678        5.29418853678775       12.85133519265367
C           -4.64051046397847        5.75296219677762       12.30837427398200
H           -4.36302906558365        5.44035821562076       13.32821382511770
C           -4.26572284560144        4.67444526539538       11.25510937636192
H           -3.87563863812028        3.76863226577623       11.73972145477541
C           -5.53576181777498        4.31513393305646       10.45697217136119
H           -6.06427145060549        3.55402865397625       11.03958178339180
C           -5.33820517091628        3.83176960063484        9.03027399012726
H           -4.71238377293023        2.93576281854703        9.06498882432944
H           -4.82871069236429        4.61548466605776        8.46871407426696
C           -6.66140719470231        3.51822933813443        8.32888855368210
H           -7.28038744776976        4.41715064005248        8.34642946585164
H           -6.43832501543861        3.27080329391715        7.29085054124362
C           -7.42274040194669        2.35797758521979        8.96293753695549
H           -7.76226604543306        2.62668687393707        9.96417436393171
H           -6.76193170235064        1.49419137921658        9.06517965172734
O            2.61195995740265        7.43558551196278        9.08633752547463
C           -8.64223956783891        1.97210579411325        8.13203322285838
H           -9.28544599908357        2.84278727886320        7.98630029641083
H           -8.35451179206840        1.60846299649237        7.14517244514466
C           -9.47246978901458        0.91089495839315        8.79906145113723
C           -3.81701228539700        8.16056381119564       12.56326465302434
H           -4.83910097289107        8.52680398120851       12.69915820377418
H           -3.25645916630232        8.82864299882085       11.90354841071176
C           -3.97805730128160        8.03969177501381       14.99400262378384
C           -0.97064952734662        9.11134811266716       13.54101684557399
H           -1.29081095243525        9.37245943738923       12.53649256393713
H            0.08171922572065        8.82491945304611       13.51636832215772
C           -1.81179859336783        7.99922785096019       14.15250179822496
H           -1.46494859635377        7.02043196912353       13.78697700120484
C           -1.76210913515812        8.10471212693833       15.70211052119641
H           -1.28658057890721        7.22499893272245       16.15242912639384
C           -0.96478463965628        9.37254548656213       16.07550935404396
H            0.09576455629572        9.09713076087720       16.07504056341454
C           -1.30739684797097       10.04581489895789       17.39213953459820
H           -1.16710393640417        9.31601728042732       18.19384172863341
H           -2.34889805598640       10.36833769981560       17.37057244175077
C           -0.40941106552706       11.25702972313809       17.63994416533766
H            0.63444493112754       10.93845155203601       17.62988529342367
H           -0.55701397285002       11.96889117547438       16.82478565606527
C           -0.71884437006499       11.92028755248833       18.97976238069378
H           -0.53418457514783       11.20324249883886       19.78165054835638
H           -1.77020637301768       12.20555743997402       19.00600025854154
C            0.14020985854064       13.16049036692048       19.20784484796099
H            0.06486662827772       13.85036437842766       18.36661736329352
H           -0.19461109201060       13.69268846076726       20.10078764443805
C            1.59587373541850       12.84282072434646       19.41846043669175
C           -3.68651204925973        7.85358170726206       17.39426913218893
H           -3.06691238336713        8.34974473873181       18.14113814351098
H           -4.70221455856044        8.24787855231613       17.39748580441488
C           -2.61150364068956        5.93135977266870       18.39780644698270
C           -4.91218389881283        3.30879469103809       18.55896085258007
H           -4.43647777190850        2.69385101184260       19.31727084081658
H           -5.50952327559429        2.67329473036290       17.90323656897107
C           -3.90531760381447        4.11582674115036       17.74542904917455
H           -3.53488643769171        3.50526767717773       16.90706642536427
C           -4.56878419340619        5.43054696670857       17.24617860604387
H           -4.56763811412980        5.48075855437817       16.14721530553682
C           -6.02569072320459        5.44986736605679       17.74908250136849
H           -6.60404048360898        4.82618000593762       17.05660058446699
C           -6.70690299156235        6.79827734179525       17.89745022371322
H           -6.62361917388638        7.32951202478829       16.94548216088899
H           -6.20689593091282        7.36671011574996       18.68245850422470
C           -8.18048820802373        6.63113407673534       18.26621911873807
H           -8.24141406109161        6.09250252520852       19.21447648716877
H           -8.67732700600150        6.03289283039862       17.49993637865578
C           -8.88294115794904        7.98174862106947       18.38171253871007
H           -8.37012332000016        8.59132544134869       19.12519714301062
H           -8.82805057974343        8.49141943933140       17.41796083581380
C          -10.34590075029809        7.82723734785715       18.78641609475529
H          -10.78265008360576        8.80367605841789       19.00641199905114
H          -10.44156328068475        7.21521862668261       19.68399498409193
C          -11.19737333056884        7.20882273943473       17.71116747471292
O            2.35282277154988       13.92897798448847       19.34411091194105
H            3.29965104917058       13.74182458031350       19.49461951917298
O           -7.90359355167059       -1.98430291190845       17.65092549590015
O            4.59140156257875        7.41783320522884        8.06928650783178
H            4.94571710395791        7.75843361787966        8.91302208637715
O           -3.37922843257325        3.54485133952041       14.49716028513065
O           -1.09445288839952        3.14140209365064       14.68395244641844
Cl          -2.08518684338960        4.14210434727401       14.48650527381775
O           -1.99626772046628        5.10479155947079       15.52966192601575
O           -1.86359089699691        4.78164423348363       13.23649311118566
