143

N            1.97465380974590        3.08542832359457        9.88605190248617
C            3.11156454831640        2.91631185394021        9.00591956625598
H            3.60973506905096        3.88153139724761        8.84236430981303
N            4.04646439046624        1.92058925493534        9.45615687547687
C            4.97482121187777        2.12405528296829       10.53958251227441
H            5.93133488224920        1.67339675386886       10.27256587155505
H            4.61504658932197        1.65003047699984       11.45548169312554
H            5.10158980506029        3.19293130699032       10.70318942051658
C            4.03230852763895        0.82318674830987        8.66274165915302
S            4.97287991048854       -0.51037306482183        8.87411359944300
N            3.15250222004452        1.00502880169378        7.64976549482551
C            2.97756586319223        0.08792568619071        6.55246676349757
H            2.62442148806868        0.63902086018940        5.68215766101041
H            2.26213628499177       -0.69691454753315        6.80927732976140
H            3.93733173846272       -0.38063989736506        6.33117448227589
C            2.48852556933123        2.27791516826277        7.74108014726120
H            2.61592640076906        2.85758829078901        6.81675042132088
N            1.08398629308634        2.17615172489040        8.07560751954077
C            0.79968320003794        2.75768308837919        9.27640653897969
O           -0.31171808524539        2.91099517163219        9.74595678683450
C            0.05701780154915        1.79988805301584        7.14207569701554
H            0.40192542977334        0.94466588424326        6.55717721469443
H           -0.82510569295441        1.53953885452366        7.73045939930770
N           -0.28873097316224        2.83062220352409        6.19828220425635
C           -1.13675555127556        3.96823626925990        6.48414924968606
H           -0.75415738673517        4.52125330047688        7.35270635045370
N           -2.52295414769494        3.62376338671614        6.65949359417497
C           -3.06170199127089        3.04028709601369        7.86320486987971
H           -3.98130398270827        3.56212292524461        8.13220909207809
H           -2.33291966721483        3.14091907495373        8.66515123018824
H           -3.29890756776908        1.98565760405434        7.70754027825288
C           -3.28951826006161        4.11338444575295        5.65629851759356
S           -4.92336337531681        3.95642539611116        5.55083381158731
N           -2.51258514448129        4.76474231879643        4.75820494830047
C           -3.04281405598585        5.56232193724272        3.67985497098761
H           -2.29649420328221        6.29393008561692        3.37649296023428
H           -3.94384354937013        6.07393626900709        4.02224447260344
H           -3.31033016245396        4.93077412396400        2.83009346637362
C           -1.12911283078368        4.76066817871471        5.15307211218441
H           -0.73560524482535        5.78353962805555        5.22782689018362
N           -0.28478151191208        3.95710695198932        4.29404164384057
C            0.25770463419587        2.89250282387219        4.95093340576784
O            1.07318793587372        2.11425381166512        4.49326308730557
C            0.06698322003973        4.29030520233322        2.93837789331763
H           -0.81060089804561        4.69003395236766        2.42601041194035
H            0.40487332678069        3.36509556573591        2.46657825665462
N            1.10237334499372        5.28192668137337        2.82572409803750
C            2.49997323857815        5.02986693519409        3.10534324550690
H            2.60441983332929        4.50943023869502        4.06733421533681
N            3.18107243004278        4.31963540028615        2.05602523624210
C            3.01765676335952        2.90974258550816        1.80644041866236
H            2.33503576833736        2.73746102917686        0.97117159848829
H            2.62909064764304        2.43254824935480        2.70463708615208
H            3.98832887537047        2.48417597000050        1.54917287120570
C            4.09229998618126        5.10182171065075        1.43012940786464
S            5.07527358271976        4.61572951736497        0.20332289006933
N            4.09561352368931        6.33538441061991        1.98869872086208
C            5.04546280966292        7.36819977037512        1.65905974999873
H            5.14669857045299        8.04244059360263        2.50760712138297
H            4.72324344700686        7.92798533811148        0.77840402778048
H            6.00707745806286        6.90413222691053        1.43707661972290
C            3.13462605133341        6.44041187280221        3.05333072841640
H            3.61267845104232        6.76879096232178        3.98624914957762
N            2.01066901214307        7.29830342809824        2.74176636903545
C            0.82963946430911        6.61592107102758        2.73984021040521
O           -0.27634914929919        7.10934898611144        2.62910137224376
C            2.06955855447014        8.73499779960762        2.74326942320106
H            2.97902170533930        9.05488553127307        2.23010146100305
H            1.18049962527099        9.08844664285364        2.21706305547753
N            2.10939500095494        9.32314149102065        4.05684040897975
C            0.96492898326987        9.48468045220016        4.92879140757312
H            0.46014172897232        8.52091303297564        5.08010147268306
N            0.03803280477628       10.49006372021301        4.48133974822467
C           -0.91235646835122       10.29774322179498        3.41404036346881
H           -1.88387943200671       10.68092732124106        3.72947387881578
H           -0.60314391381423       10.84463422727228        2.52059937276980
H           -0.98932199526403        9.23539145389633        3.19098410325985
C            0.02623772718746       11.56179679419317        5.30842145479144
S           -0.93934330004088       12.88148057008340        5.13024147694013
N            0.91410455830627       11.37760005156384        6.31395307958084
C            1.01961983623457       12.25358022047091        7.45421073419995
H            1.44846210940126       11.70253772778234        8.28895260276277
H            1.64410076469748       13.11842681349673        7.21942875840111
H            0.02469618982831       12.61362411081389        7.72076111122562
C            1.57836718220718       10.10551944008279        6.20893877548118
H            1.43986380273734        9.51059722860909        7.12205781232523
N            2.98541296374605       10.21101962903957        5.88462227265930
C            3.27760047491110        9.67085353434993        4.66751022524549
O            4.39182322570454        9.54441770850923        4.19553103046319
C            4.00347563505481       10.71199968978594        6.77105740279471
H            3.61735323845201       11.58068980555622        7.30804616063436
H            4.85434278933823       10.98823263690643        6.14451247290765
N            4.43867633845636        9.76845629292139        7.76495627493005
C            5.30282246160390        8.63955221869013        7.49174916288002
H            4.92712887369196        8.07791935887030        6.62571902591141
N            6.68438149144918        8.99864778657325        7.31631439348785
C            7.20452421641342        9.63408180472212        6.13210117933283
H            8.17472989080780        9.19619968550197        5.89481211355139
H            6.51294688852467        9.46964603785787        5.30764348423274
H            7.34123661805430       10.70587912568860        6.29354311143636
C            7.45218262770163        8.55783708996997        8.34090961106953
S            9.07872938844819        8.77278499077792        8.46516263169675
N            6.68374630823281        7.88402909924235        9.22895507379705
C            7.19783431876030        7.17941579533205       10.37566963637545
H            6.52908981925993        6.35409198802187       10.61553924683101
H            8.18988724692205        6.79646400649688       10.13445786337424
H            7.28695182188270        7.84658336088313       11.23628638611684
C            5.30227721825598        7.86022543397111        8.82887683710818
H            4.92673924404257        6.82976516791845        8.76669968508588
N            4.43905384790747        8.65414584335497        9.67685781965437
C            3.86097599360432        9.68667382016670        8.99793328872681
O            3.01131421728636       10.43817621995502        9.43655333758270
C            3.99244434221930        8.24368554401768       10.98061052772354
H            4.83667855419869        7.82265740747636       11.53059665367798
H            3.60803907812445        9.13597986199261       11.47838156943941
N            2.96750119495193        7.23295347266681       10.96275827733006
C            1.56633878968324        7.47854815293420       10.69581148902500
H            1.44510819704624        8.00467953492288        9.73899444238508
N            0.89093293159865        8.17599127793809       11.75838147734581
C            1.01344966392642        9.59246876160188       11.99764009238431
H            1.65524237066389        9.78493171883698       12.86048065356002
H            1.43112680651219       10.06862594565849       11.11231783857368
H            0.02509909238187       10.00336179618702       12.20854544779713
C           -0.02015452372453        7.38590060121582       12.37399833247128
S           -1.00873228605112        7.86079159976658       13.60018925890640
N           -0.00837195210679        6.15098512991395       11.81895035250396
C           -0.97428777760598        5.12730712233307       12.13267127441918
H           -1.03653672205808        4.42833114898993       11.30091388790175
H           -0.69069866768531        4.59590358626421       13.04382936451135
H           -1.94666736519596        5.59356855256569       12.29778801127700
C            0.94166466275285        6.06195687349715       10.74211278334804
H            0.45422344684492        5.74229619539898        9.81095444518999
N            2.07525582685459        5.20978669998479       11.03545057130743
C            3.24905066259350        5.90280350376175       11.06542738903603
O            4.35813393867991        5.41862846108250       11.18963465935521
C            2.02131676521897        3.77546002627946       11.14672000484915
H            1.12043655638275        3.49180816708232       11.69459974047509
H            2.91939146980491        3.46998539969750       11.68788118911704
F            2.61745118188551        7.25443431355526        7.57276920576460
F            1.68878163982467        5.19467749914818        7.62203655265632
B            1.59307321043212        6.46479253920507        7.07807639189746
F            1.70067903110091        6.38218011012524        5.69956189198056
F            0.37213568460739        7.02345904855413        7.41486884337939
