197

O           12.38544068722568       22.45474747026818        6.18520078266064
O            7.81037465227192       23.86407796519892        6.99262517769062
O            6.46390240526210       23.20963110738706       11.45495514099336
O            6.51737758238427       20.92570042569452       15.62203376579192
O            8.01871617487091       17.46653449746061       18.43271833127498
O           12.56271004884729       15.99513408714300       17.57970085728054
O           14.71411135469324       18.30596005332076       14.09453340014016
O           14.52304521245705       20.67066929280832        9.97777615351209
O           10.83731929178145       17.67912726089583        6.22211876412635
O           12.30917198208910       16.69358339861349        7.71230907079863
O           12.37714269470005       14.39536592466568       11.84335348604360
O           10.95290328599210       13.60624273536432       13.48645620587269
O            6.54109912815294       15.01500972020700       14.33451858907219
O            5.33227738208941       16.62416628439328       13.18607959021477
O            5.23629262555648       18.89638127724467        9.04157123319489
O            6.40672630830477       19.05529272376746        7.05180470927325
C           11.17022786595945       22.95068872451433        5.80707363267525
C           10.02798336235531       22.92000671931130        6.60571928005744
H           10.03113212028010       22.38878667889508        7.54716024227964
C            8.90725929170856       23.64549061203228        6.20671873107596
C            8.89505801696099       24.32645623694691        4.99222023982367
C           10.02469472389640       24.31239819008047        4.18312757120463
C           10.07926973212008       25.04115323648843        2.88349367394820
C           11.16632932207793       23.64160511957107        4.59940011578196
C            7.39565381188559       22.98623765619727        7.96208099126363
C            7.13811308614764       23.50342045590201        9.22301738606374
C            6.62780721727063       22.66844904404767       10.21061156891540
C            6.37649554293400       21.33209683133558        9.93032988623346
H            6.01682334634941       20.66003872988245       10.69240363726405
C            6.61496288885642       20.83606573707167        8.66005941576797
C            7.13269771793214       21.65236305974651        7.66891092706812
H            7.31105969606665       21.26017636503850        6.68076518339912
C            5.78371143869085       22.47643622999463       12.40200924110023
C            6.46294889517201       22.09877862633111       13.55321555025853
H            7.50132810141693       22.35739015382316       13.67941296741677
C            5.81062316256102       21.33568585934345       14.51101702697741
C            4.47167736760236       20.99645208407019       14.35879710970880
C            3.79520793468473       21.40011928315045       13.21206350802463
C            2.37778175692599       21.00387733497004       12.96328843915516
C            4.45345266264412       22.12218789735021       12.22286385452705
C            6.73253098581960       19.58492804803365       15.78278368552579
C            7.27622732005312       19.17705541616504       16.99534088912473
C            7.57016985433953       17.83559476120359       17.19125176077466
C            7.30655492279250       16.89471670670356       16.20129562589734
H            7.50879233331987       15.84900496388619       16.36841947603154
C            6.75273354968967       17.31457162367885       15.00372007168434
C            6.48150313806061       18.65435014807365       14.78258131794062
C            9.10167054600112       16.65379020341243       18.62581401305143
C           10.22257725736577       16.63761121365355       17.79910310957920
H           10.23439419706071       17.20652941951226       16.88007030912927
C           11.34813362243342       15.92017263392494       18.20139923888166
C           11.32733619476148       15.18008237629306       19.37884734253625
C           10.19722573875477       15.18580409299637       20.18500500843174
C           10.22382838295447       14.36383484226544       21.42904741903826
C            9.08395468256836       15.93000383630548       19.81515464649885
C           12.70103047092251       16.18264694558697       16.22911652307819
C           13.61221628812368       17.14134721439659       15.81063352254716
C           13.85043170438539       17.30810924787622       14.45138873621140
C           13.18466274033517       16.51611029874613       13.52471794065116
H           13.32294235865865       16.65677522988171       12.46501219194931
C           12.30019186971548       15.54314061386392       13.95875215236349
C           12.04343191864904       15.37311367870603       15.30860024152124
H           11.36023519200574       14.60804435176326       15.64060416575974
C           15.08204636218949       18.39566934550633       12.76801855009848
C           14.66268062054903       19.49749470886716       12.03631605713418
H           14.05947717576951       20.26055010027493       12.49986489809176
C           14.97656581015782       19.58028068308895       10.68580934935437
C           15.73143158650387       18.58588133521604       10.07869416293291
C           16.18652662725333       17.50955972667553       10.83220662115515
C           16.95511362758259       16.44166932577003       10.12732035786563
C           15.85830098136477       17.40439312728958       12.18029087284199
C           13.69017211664616       20.45282739853844        8.91607326413996
C           13.43156600815908       21.53526551767346        8.08346127731911
C           12.53523275502790       21.38866355905177        7.03440174718478
C           11.90840604473072       20.16981175358329        6.79598496069323
H           11.23433499068949       20.05176338289107        5.96293785997233
C           12.18343222996713       19.09857745720052        7.62912561538325
C           13.05537263199909       19.23813450689829        8.69502940959746
H           13.21096293150668       18.39925875459357        9.35362582867873
C           11.44652759640440       17.78522002578401        7.48772779108374
H           10.65972093521385       17.78267461195103        8.26518899565746
C           11.77305903267452       15.65187292405762        8.46535859225857
C           12.26613921694722       15.48961165216095        9.74959337939609
H           13.02540245860401       16.16516476978238       10.11201441294142
C           11.80399643752212       14.47798024542347       10.57625498744735
C           10.81914803974738       13.59769209307166       10.11937211102503
C           10.33012892274537       13.79170187199609        8.83464840617787
H            9.57277670911349       13.12064080563949        8.46951131819508
C           10.78855654626055       14.78506266041227        7.98198858807816
C           11.53722974716179       14.75464752718537       12.91732397750348
H           10.73708157300470       15.41708306249729       12.53711048194358
C            9.61163415754237       13.50634598314108       13.13444148678872
C            8.69030068141992       14.09497119205145       13.97636622902837
H            9.01108727974110       14.54082015921205       14.90461101132412
C            7.37939212669716       14.21792278318813       13.56333818663572
C            6.95935062652879       13.71341153405942       12.33509146709356
C            7.89910910690181       13.08901428810353       11.52715779823295
H            7.59877163523164       12.72743812677801       10.55850690144772
C            9.23354102547503       12.99263607399611       11.89653349139313
C            6.53615021386249       16.34275757220855       13.86455799463687
C            5.37940972108696       16.50114599510950       11.79841362061200
C            5.30320726338712       17.67525565003834       11.06669836638895
H            5.21963830037737       18.61826278076101       11.58448467047141
C            5.33190699738623       17.66305695677083        9.68187077077434
C            5.44837642171917       16.45064523761742        8.99562855685009
C            5.54089050858800       15.29107613918823        9.75176775199761
H            5.64572232052014       14.35344098862299        9.23483423807326
C            5.48922605652137       15.27421758379771       11.13894436710673
C            6.41948614180126       19.35425997238149        8.42883829223524
H            7.28346118801332       18.84687187013193        8.89766261888007
C            7.26428836035741       17.99708330574212        6.77357027536178
C            8.56287967296469       18.30831993561504        6.42300624199393
H            8.85972250842214       19.33742828982979        6.29822006915837
C            9.50512438614879       17.30200397191814        6.35255043355631
C            9.15779527040625       15.97377245267613        6.58543004344159
C            7.83817104151484       15.68656601213592        6.90047068508378
H            7.56171810319662       14.66698930369302        7.10801823388990
C            6.87885014292408       16.68108470362194        7.01581983717234
C           10.25680815041506       14.93324068091927        6.57011102514574
H           11.07695607626350       15.34235484961694        5.96584791691829
C           10.32834292727610       12.46019982088717       10.99648855664745
H           11.16611690533089       12.18522466748609       11.65027370386404
C            5.52693604550254       13.97962647277959       11.92669582071007
H            4.96917908005735       14.15889517657241       12.85513963211294
C            5.46150081010851       16.42343143327301        7.47904626123745
H            4.85978850770996       17.27941256112385        7.14666831101646
C            9.80096984929066       13.61462762716962        5.93990655786963
H           10.60946746241606       12.88774764260698        6.01335643527408
H            8.94275558377029       13.20721454932938        6.47174338670774
C            9.39813247746722       13.80939633469096        4.47268539882558
H           10.24668367591625       13.70838914465342        3.79905005245662
H            8.96720981166763       14.80653469346175        4.35233645300899
C            8.32665862996092       12.82440979672249        4.07407333618795
O            7.30426570237288       12.63698020867165        4.69584825553192
O            8.61563502783650       12.18194373188167        2.95761484111673
C            4.86349790304681       15.14900490901393        6.87538987105958
H            5.45746561734307       14.27573992941055        7.13458571578730
H            3.85937372609897       15.00748363257696        7.27436985256951
C            4.80995964581614       15.25089483015526        5.35391903335941
H            5.79605121835972       15.49502676585226        4.95321526071174
H            4.13227550504426       16.04711022868359        5.03782203878515
C            4.36065746782340       13.98065700170851        4.67822888631348
O            4.37757206878548       13.82319706080529        3.47436279473916
O            3.92036317179050       13.05719209181413        5.50754916114505
C            9.89984167287198       11.21380604989172       10.21738947311146
H            9.07099024888821       11.44166939819294        9.54903965781293
H            9.54798142772680       10.47380325578056       10.93572216917685
C           11.04626920132033       10.63475256008683        9.38464504966772
H           11.59992485310277        9.86324412158211        9.91684630702713
H           11.75111704252527       11.43063912670509        9.12677814273153
C           10.57024104959043       10.07233145013105        8.06978222599866
O            9.58632157018165       10.44595676258493        7.46947598281339
O           11.37209050028757        9.12814502422284        7.60782814947727
C            4.87156259962128       12.78653436159748       11.22234910976678
H            4.93949707424392       11.93479250521990       11.90064329502367
H            5.39704232800966       12.53568462138686       10.30464515667902
C            3.40333790975565       13.05440284367136       10.90284921878976
H            3.28343769351671       13.98117072517162       10.34000355995020
H            2.99877132130855       12.24396665628619       10.29325091370637
C            2.53960448329530       13.14896545878563       12.13194217403661
O            2.86596007404397       12.83130185067112       13.25476159909799
O            1.32944742304294       13.61007032299637       11.84839507581201
H            0.75202398089710       13.66153711749316       12.63452694677927
H           11.08966862027868        8.78034820971921        6.73889249845287
H            3.62718529619326       12.24679331936959        5.04684493492795
H            7.92119706261358       11.54932955895672        2.68675967007323
O            8.84827195559757       16.12083116644830       11.45661436250001
O            8.84206866573159       17.36460065550705        9.49112243288990
Cl           9.12992879721056       17.39353618174135       10.88534095221413
O            8.32237741462614       18.38555634609411       11.51555302753520
O           10.50716252196810       17.70618497851656       11.07859969233546
H           14.12638363438743       17.75599776777162       16.53001409103713
H           13.91962548794639       22.47981365068034        8.25529262327381
H            7.33730870067361       24.53937669680133        9.43972152984337
O           16.78220897930706       16.19609015670673        8.95453571342295
H           15.95650462809644       18.62787617775884        9.02412190257506
H           16.13152270836958       16.54107372970440       12.76783761155432
H           12.20036613017949       14.62215213254975       19.67448995635795
H            8.17842376287569       15.95766710812906       20.39906358646112
H            4.00511520083627       20.36863756832700       15.10277403851076
H            3.92697094383576       22.38600526553728       11.31859332693181
H            8.01494167496596       24.90302752318053        4.75825231736994
H           12.05881423735154       23.66737183641792        3.99634962971332
O           10.91354288332753       13.37394218212949       21.53561531691781
O            1.95624463487390       20.79653856104270       11.84773620047854
O           11.12013696419661       25.42758970345869        2.39974480071546
O           17.84418855674546       15.75806671993732       10.83370490352568
H           17.97218285981869       16.08400715082026       11.74390566232275
O            9.45942099613258       14.75663574067452       22.43995697482994
H            8.99941825803583       15.60219050150180       22.28469515635608
O            1.58326432773538       20.88116601204711       14.01759380881445
H            1.98835348392803       21.15876511613270       14.86040542087502
O            8.93137823784573       25.25777420624323        2.25294928919457
H            8.15809054099757       24.85223531496225        2.68582242275988
H            7.37952692392330       16.48021556529663       13.16231094270319
H            7.47279073826247       19.89856844249719       17.77026343186158
H            6.10020920465343       18.95489516583479       13.82008128976479
