86

F            4.84906887700119        3.41168752953687       15.70907400914492
F            6.82986670903580        5.13649213627619       14.40715030778686
F            6.72924022984488        4.29184487969752       10.24773299501319
F            5.73266626808427        4.42910245527643        7.43737676878086
F            3.51697831868958        6.18027728509139        4.03299091670787
F            2.57446343839856        3.42105609121519        3.66014997966080
F           -0.64688354236723        0.74400779277794        5.69946335120930
F           -2.52946176533947        0.98976011639169        7.94372129016271
F            1.18345327090713        0.39866517215402       10.46562005082590
F            3.06792090994249        1.07946001778867       12.68118339274057
N            3.68936962571343        5.06452528568165       12.83395130785586
N            4.42937965308542        6.85958172404802        9.60382347807514
H            3.78340110489180        7.58600608343095        9.86363580682616
N            2.79600817568422        4.45999856114824        7.00405972415523
N            0.59325696494851        2.49607825602266        8.47477177590390
N            0.38389643478501        3.29823376501190       12.26895105247754
C            3.44816312657536        4.19740077994035       13.85869221399125
C            4.61510994289705        4.12175497660016       14.58036177822786
C            5.56733565091679        4.95144009017428       13.95467218617076
C            4.97268834668596        5.52565872522652       12.85689447574832
C            5.43756753887009        6.61219116225332       11.91815730430962
C            5.22940759891987        6.19826547581569       10.48391688470560
C            5.83299824033042        5.18862429649529        9.77056131396298
C            5.35805105479058        5.24992390086900        8.44816390146311
C            4.46445626562615        6.29341712147878        8.36830572450563
C            3.65585556771106        6.78965575941575        7.19558335911968
C            3.22999775045923        5.59025835678549        6.39096255142854
C            3.18802877206607        5.33626652912690        5.04100044468721
C            2.73521985558095        4.01427876067285        4.86777497842801
C            2.50264387028670        3.47582637385903        6.11439280952596
C            2.15355007824730        2.07336812490282        6.54876612464785
C           -1.27026892141307        1.49092090411556        7.93656291963756
C           -0.64210919861990        2.18586156708919        8.94243941767435
C           -1.07546570861133        2.59223694509588       10.32644763347562
C            0.10838537224127        2.44309893334576       11.24878479375762
C            0.80545888542299        2.00775088762126        7.22466814896889
C           -0.36517840096625        1.37664823137211        6.86415464870440
C            1.08631719152634        1.47525804292708       11.28263941706016
C            1.97097070927687        1.79203609847359       12.32902241984552
C            1.52087341095323        2.94571617247674       12.92815072994396
C            2.06182445595208        3.66881303485896       14.13478852809935
C            4.62901242286690        7.88099461604273       12.23847190325517
H            3.56503319671665        7.70752316267486       12.09956293412402
H            4.79465582667930        8.15473572813050       13.27726487105609
H            4.95543882068545        8.70427905356523       11.60839883037804
C            6.93096182482064        6.90347586227380       12.12327445927303
H            7.52068980643766        6.00546057990629       11.96135067334623
H            7.25542921241231        7.66465498249711       11.41825711824121
H            7.11346802588949        7.25678947316241       13.13402315488287
C            4.52286197400455        7.73173258797913        6.34791383977810
H            5.37669960317529        7.19338196163055        5.94399022884055
H            3.94417190028868        8.13335625602612        5.52120822481333
H            4.88473285651676        8.55359208915731        6.96005732480647
C            2.39970047283912        7.52895707514952        7.68526964628230
H            1.86492272913445        6.91317620096726        8.40422802805995
H            2.66445913867997        8.48070457924466        8.13863544827759
H            1.74379484187640        7.72431496288820        6.84094710032688
C            3.22150994002305        1.60186869240621        7.55565632609686
H            3.26118334815109        2.24050573505421        8.43322477276574
H            2.99800831314772        0.59013953158447        7.88577358101776
H            4.20275292501270        1.61555356832157        7.08713465424413
C            2.17755460778326        1.13143478431325        5.34232700007961
H            1.44503727609526        1.42811753189737        4.59789442447941
H            3.16255059647305        1.14561241911633        4.88313595246466
H            1.95502724046936        0.11687985717865        5.66243499818949
C           -2.21192263102148        1.68635339523007       10.82432316885727
H           -1.90153745953841        0.64488345137594       10.78931059550585
H           -2.46698446769956        1.94159925059200       11.84957217909446
H           -3.09216450589528        1.80711006752926       10.19975184709087
C           -1.54700176762540        4.05510942367203       10.28748184052623
H           -0.70504195721323        4.70937939688226       10.07439643203886
H           -2.28564864337219        4.17425230762786        9.49911825770454
H           -2.00647305921382        4.33777146562661       11.23120566621917
C            1.16903202307102        4.86882265924933       14.49371053153426
H            1.12028647403692        5.57523849516961       13.66899442731919
H            0.16867309594504        4.53056374653945       14.75107547303343
H            1.59169431358932        5.38108598238105       15.35421919075408
C            2.08196660864632        2.68597586302001       15.31424074653540
H            2.75230122649362        1.85630878837396       15.10722266548166
H            2.42053172237061        3.18435173189680       16.21795004492753
H            1.08223495652350        2.29265046691506       15.48024005078054
H            3.08620775381978        5.14057731471664       12.01798386115715
H           -0.11305748153617        4.15982077482294       12.42132283006858
H            1.25283624865127        3.04488605321812        9.01993689910643
H            2.71524998132341        4.39336455312579        8.01560752815386
Cl           2.32137930608850        4.54349343209452       10.09686998200251
