117

O            7.13505396206133        6.01710589675090        9.58798359044741
O            4.90154307388824        6.70282020941283        9.37904788569076
O            2.24302626732005        8.42593948876374        5.81581649737695
O            2.58016652975490        8.88086002221548        3.53684341333794
O            6.27989493195893        8.53161579666831        0.54711440824789
O            8.50777188951001        7.83328010459405        0.75773418564387
O           11.19820101373427        6.19743243860056        4.33942750726437
O           10.84862314251024        5.72290811794884        6.61002824995826
N            3.86754518773499        0.13891682257073        7.44127298963709
H            4.71039239250814        0.25938650256067        6.86690838079044
H            3.34526406749509       -0.66406260026260        7.07605354154754
H            4.14219701754974       -0.05447363779845        8.40993010163649
N            1.82425899561571        2.44701492276022        1.61779207346091
H            1.42932896210967        1.54511517051121        1.33100176316705
H            2.57969520646868        2.25798644381813        2.28874800989021
H            2.22826408824931        2.90886621531477        0.79698089726581
N            7.84010250543937        1.36699952965349       -1.11674860160891
H            7.93461916291745        1.77035714561767       -2.05547573615535
H            7.59005293461447        0.37622883799564       -1.21117254282346
H            8.75307282442926        1.44004137719374       -0.65378616342291
N            8.73154490437280       -0.42134125717433        4.20257071118389
H            8.21689261116067        0.12805822186436        3.50329887711374
H            8.31074988110748       -1.35529119665786        4.24849908485113
H            9.71016924283230       -0.51156464983393        3.91095028395439
C            6.23868036646002        7.08770439906018        9.51573813131114
H            6.52808433672689        7.78656689307854        8.71300824062698
H            6.30190253998216        7.58693393589117       10.48811799378845
C            4.41008181452570        6.53334473698509        8.08206617931702
C            3.64601165146550        7.55455203779059        7.53716004776000
H            3.47978071340125        8.46078481771238        8.09924633277149
C            3.06789156371846        7.40109627448797        6.28589860824368
C            2.77326757438141        9.29648817231434        4.85766624077025
H            3.84124506812763        9.48904860590870        5.05435505264225
H            2.20029555497145       10.22399458595959        4.95945126750401
C            3.56814676480747        8.07381326549271        2.96665377174714
C            4.47729641653944        8.66860542827264        2.10477445602097
H            4.42512973894610        9.73013925859913        1.91708796416835
C            5.43649613797423        7.89897987406414        1.46328879896958
C            7.57320995630490        8.84991683508791        0.97449491611694
H            7.89359387665649        9.68295815316932        0.34034092325112
H            7.57022050986220        9.16074383796263        2.03257754969553
C            8.67880590251568        6.88566227498790        1.77019444175912
C            9.77773611487355        7.01762288312122        2.60621131358811
H           10.44551792532084        7.85724431145198        2.48845854228236
C           10.03643538945834        6.05987753449977        3.57551928703859
C           11.06549221514995        6.70304251548642        5.63599144720274
H           10.27907315566809        7.47513370484314        5.67671925351907
H           12.03736235900305        7.14542263081057        5.87817045329442
C            9.52437579598845        5.37399086085187        6.88642786411229
C            8.93739276486459        5.89695938441000        8.02921721345390
H            9.49238706668889        6.57851786857739        8.65558689510270
C            7.64995364308760        5.52421921789715        8.38639275709267
C            5.50628232622423        4.27942089521750        7.97287914819297
H            5.43172719561958        4.37737391400314        9.06292080706744
C            4.62923512339523        5.35527189487944        7.36816439380737
C            4.06786477064287        5.23911165441963        6.10473665168514
H            4.25827291998441        4.35363481113493        5.52602740541769
C            3.26640176006713        6.22851581062886        5.55675238287164
C            2.63613427376704        6.09477970073532        4.18873996659017
H            1.74712682364090        6.73790457493356        4.18841522325321
C            3.61955061781227        6.70145932769248        3.21166025599372
C            4.61183795718993        5.95993137176255        2.58774974107829
H            4.69561891785562        4.91172963976714        2.81121714602291
C            5.51227621640298        6.52597131680720        1.69725863993517
C            6.59290019565575        5.71553654719817        1.01429151349398
H            6.84268955122723        6.23689671741761        0.08196447922890
C            7.80970458183845        5.80345545337885        1.91057103407039
C            8.07378680701741        4.87423148333037        2.90633339417340
H            7.38920655029522        4.05750618448350        3.04632284268239
C            9.18514272171220        4.96584122782953        3.73157088490067
C            9.47423318099441        3.95224267779256        4.81744725972757
H           10.55752476541838        3.96273686989869        4.99034145058887
C            8.81983924720097        4.48594188966464        6.07400655899071
C            7.52082661535787        4.15789039952524        6.43307092352014
H            6.95086841763571        3.51005994078677        5.79294564742472
C            6.92433490885659        4.64018219585263        7.58788777057861
C            5.10295798387268        2.85597622400868        7.57851467803652
H            5.09658194310683        2.76247147865181        6.49703782882108
H            5.85838448290798        2.18787115062880        7.99017541670429
C            3.71209390591173        2.51831933353729        8.12831846492361
H            3.77819104831644        2.28560899639305        9.19161364324245
H            3.07250418983932        3.39659866424966        8.03877047671741
C            3.04886812515413        1.37365880824286        7.37095545336751
H            2.06503718590920        1.18237300152174        7.79660192715492
H            2.93531792997481        1.64616041274769        6.32252103687982
C            2.19376250849745        4.66968712873668        3.84248427706625
H            3.06070542672530        4.02771834228308        3.71571062720882
H            1.60080590463781        4.30166119430120        4.67997809986936
C            1.33578983144233        4.68582018921381        2.57517975273837
H            0.49625232165932        5.36358945221628        2.73399973456772
H            1.91566653971829        5.09460076878430        1.74675887070016
C            0.77803826121423        3.31345576295514        2.21165616541808
H            0.37250056171658        2.83115564352439        3.10005619759207
H           -0.02714870891936        3.43417945050254        1.48773319319518
C            6.15470349801781        4.28889660703439        0.67631812413860
H            5.94056706237564        3.73203102745174        1.58376264518181
H            5.24152078944231        4.36320727747692        0.08713412707168
C            7.22837609044257        3.55105316740752       -0.12319489956310
H            7.37583212411441        4.05963702430416       -1.07683945406230
H            8.16705936034432        3.59755798290581        0.42951262556053
C            6.80901223201895        2.10105682683136       -0.34563088504155
H            6.66806524438779        1.61082134750210        0.61684488847676
H            5.87114412575505        2.06970992621277       -0.89810211978126
C            9.04640022092778        2.52791072396674        4.45449390148433
H            7.96757485702748        2.48978700932412        4.34106596792467
H            9.51367670135036        2.29463199747218        3.49957246882472
C            9.48456965546049        1.53267400829995        5.53545854762023
H           10.54325297127716        1.29814687546251        5.42055363859197
H            9.37110288980220        1.99800197037853        6.51467069795902
C            8.64774872545582        0.25839638748196        5.51894968046335
H            9.00008632427057       -0.41477300789112        6.29876535987456
H            7.60448731127380        0.50756754971091        5.70621481237544
B            5.29205081643401        1.40889074913058        3.69312270576961
F            5.44889807070729        2.75827979325950        3.94022924424615
F            6.36280356808013        0.95221339915825        2.94561006429632
F            4.10826637235272        1.22888005571573        3.00314662405097
F            5.25497330025257        0.72638814135843        4.89554492585683
