133

O            2.77777137876821       12.91143082064403       18.74154785539126
O            6.87039239914101       14.39925584935642       13.32658252361584
O            8.38541094355956       13.15417987620575       18.47433914526441
O            4.31011122744125        7.79759194350704       20.19146524467521
N            2.29655280518742        8.40812664430116       16.39501721874768
C            1.48554288222350        9.51874671911061       16.84861657622172
H            0.54031124262590        9.17580346129558       17.30972372013803
H            1.23404021988274       10.14489863966945       15.99383010119203
C            2.21617351379824       10.39072084289190       17.87034976640229
H            1.50174186715732       11.05008224109063       18.37379146799616
H            2.68402459227442        9.76341753529133       18.63685161130095
N            3.21093429494222       11.25494590153778       17.27365767051468
H            3.84705536758199       10.87714057858944       16.57336569454022
C            3.42379445291834       12.46772630105372       17.78960695028545
C            4.47632816095885       13.32086368773454       17.14515204701482
N            4.94316745869912       13.00979904055830       15.94257784463787
C            4.88707528234854       14.45332078271798       17.85000068895711
H            4.46389058230716       14.63414968384594       18.82567524184376
C            5.80822646349942       15.30662842313306       17.27333022652196
H            6.14974746313861       16.18969244608369       17.79292192844092
C            6.27881185237446       14.99647723425759       16.01107613371125
H            6.98921838902174       15.62160432811958       15.49267998794196
C            5.82638024736913       13.83294035272181       15.38952321948789
C            6.41327669168551       13.50683002166739       14.04262355306177
N            6.43264082879161       12.21264145182261       13.72608117054767
H            6.09580045856790       11.53153793272568       14.40754653026132
C            7.20053605431650       11.70908956380838       12.61370467144186
H            7.10262698261718       12.40798683685907       11.77885746984414
H            6.80031267563258       10.73484934799261       12.34373331614813
C            8.68771556382911       11.56869456459823       12.98118034904513
H            9.24478204641020       11.25562846662302       12.08631615785687
H            9.05875768575797       12.55490372190100       13.27007710096202
N            8.85954170389935       10.62852699088446       14.07494394523607
C            9.67855659466172       11.13429211728083       15.15670454883034
H           10.61731588669435       11.58618253228006       14.78512193235158
H            9.94174938064050       10.30940913445688       15.81706829705010
C            8.94873767613162       12.18815205391899       15.98985051152386
H            9.66330583842200       12.71598243002598       16.62960303828325
H            8.48107145057093       12.93075957170431       15.33431913630866
N            7.95416226837925       11.62351749154047       16.87565352246527
H            7.31980488690584       10.90814642352723       16.52471081282692
C            7.74059347286493       12.18494341283611       18.06790566952338
C            6.68939957156231       11.57297830263949       18.94620296340372
N            6.22564802481023       10.35695809519386       18.68639798453979
C            6.27708583128827       12.32420855798885       20.04779887796752
H            6.69727778377513       13.30815694616078       20.18546457424915
C            5.35959203020818       11.78131343649198       20.92672074624090
H            5.01797494145340       12.33667662907402       21.78758750270385
C            4.89295529306189       10.50551890110938       20.67108133389324
H            4.18641974092134       10.01058750400595       21.31933596312026
C            5.34484346716641        9.83717435223044       19.53343873082021
C            4.75713750801635        8.47772365351752       19.26652941362128
N            4.72254031899785        8.11055483161856       17.98600850556972
H            5.05270672503750        8.76388661192269       17.27469556492953
C            3.94366723802303        6.98265388231782       17.53642730000237
H            4.03756903511828        6.18057008288351       18.27303977063452
H            4.33683070720454        6.66453960805788       16.57391307469898
C            2.45956737607609        7.35780157154987       17.38496972888515
H            1.89163242692674        6.45534787514685       17.11627809604276
H            2.09544268570774        7.69652476587434       18.35773505951769
C            1.92971007903841        7.89629380393733       15.08673043940497
H            0.86555674153698        7.59688044728909       15.06270853720778
H            2.54243875089125        7.01362375417780       14.89672218123939
C            9.22129051682652        9.29684535684510       13.62336911056190
H           10.28191592750803        9.25747118918464       13.31344068851352
H            8.59872677808196        9.06450573630988       12.75797164872894
O            2.17764108505239        4.57274089061329        9.48152933814885
O            6.95955286465572        3.38580723002269       14.45619311458730
O            8.97104179115170        3.49332667863972       10.62827710142917
O            4.20541568641048        8.40354176182762        9.14664598485697
N            2.42087488522874        8.35058391881468       12.67131657499560
C            1.19750998423452        7.77653951186104       12.13050709710032
H            0.46105450248305        8.54670417050156       11.84349041247559
H            0.75281512609799        7.15312369543114       12.90691557473309
C            1.48880410986124        6.89348756992046       10.91680841050909
H            0.58952212140467        6.34496798519766       10.62050689638631
H            1.80313523419982        7.48893685971252       10.05146444623493
N            2.52327127374484        5.94332595929353       11.24799160619171
H            3.12943975043761        6.18947790125483       12.02008990975983
C            2.80467635043313        4.88074200367090       10.49081366518740
C            3.93688033373680        4.03677336990401       10.99824755155438
N            4.60505568069350        4.46081205439577       12.06453306438767
C            4.22985666829953        2.83894941249157       10.35039520411628
H            3.65075271853935        2.56656552582473        9.48210541196363
C            5.24546304336975        2.04044093958167       10.84766326071347
H            5.50170611021881        1.10722854708509       10.36877093633353
C            5.92226866625884        2.46466767225656       11.97770468384468
H            6.71560787920050        1.88826743625852       12.42581784400376
C            5.57208946781637        3.68682733438111       12.54533855954482
C            6.28405844920986        4.15473061928072       13.78108337272070
N            6.10121683908585        5.45259314164404       14.04719149582963
H            5.47698780217686        5.95477429649944       13.43255087458842
C            6.63133030595233        6.11754556453116       15.21863405350618
H            6.27288304198633        5.60563124041916       16.11809582806736
H            6.27670287991394        7.14773592598755       15.21796451049811
C            8.16093626887877        6.07755943903011       15.25248299211277
H            8.49612337386539        6.39897481017408       16.25053162517738
H            8.46451929199635        5.04016872395739       15.12473042680406
N            8.74129650929177        6.90555753940384       14.20335788193924
C            9.96519516896536        6.33632984010274       13.65857053087804
H           10.70225513697683        6.09303104155975       14.44310170210010
H           10.40859700279462        7.07859398179327       12.99384614813353
C            9.67618245138316        5.07508432419926       12.84407227036591
H           10.57567280372002        4.75195199043522       12.31112401974375
H            9.36610289096860        4.24234178237370       13.48639984130529
N            8.63889423404675        5.34900502301239       11.87882323134389
H            8.03537281458765        6.13675042958987       12.07702017626276
C            8.34897463429240        4.52322948932047       10.87097228602685
C            7.21586806213246        4.97894219507224        9.99935713458330
N            6.55014211553648        6.07010143517041       10.35883540487609
C            6.92016515210366        4.26049925550463        8.84324441639391
H            7.49704968889254        3.37614612205933        8.62274013978063
C            5.90401689096300        4.71060081032629        8.01785756118048
H            5.64586702040398        4.17682232810298        7.11549966208884
C            5.22915814514940        5.86501337149578        8.37420652971981
H            4.43502229817453        6.27756240375142        7.77297575102892
C            5.58263608663411        6.50522961121575        9.55894291406423
C            4.87622211222782        7.76945527995549        9.95354367289543
N            5.05887312850147        8.10814329698011       11.23444005249119
H            5.68006032746717        7.52056671350071       11.77153634653153
C            4.53303193193937        9.31780091320134       11.83050877133171
H            4.89373604010877       10.18479775441249       11.26653682054255
H            4.88824127253563        9.37557008203578       12.85886616931183
C            3.00337150837591        9.35392849946988       11.78987218266108
H            2.67160678774747       10.36831799840187       12.05980793372175
H            2.69840831327872        9.17347486504245       10.76069224195721
C            2.24062844192705        8.92421963476199       13.99736454061592
H            1.45843522265970        9.70345360622181       13.96896939015415
H            3.18044853656058        9.39878063244454       14.28360040263958
C            8.92168412571379        8.25965593866824       14.70726555381290
H            9.70970815554698        8.27265647213424       15.48119049043247
H            7.98472061082793        8.56737709286983       15.17411791784622
Cl           5.57509776277177        9.85111519964395       15.55500809873999
