301

O            0.27779351150477        8.94903671499252       -1.13601850131992
O            0.57494932861704        3.50604688916955       -3.73386838756527
O            1.67792363719168        4.69645104504071        2.01271337793571
O            0.44423492820916        9.70589180600100        5.16308522312950
O            5.76986601521800        7.04069431294523        4.72392077188662
O            6.54515548016955        1.20671412467377        3.59236562898019
N            1.52082270929209        7.61039483231535       -2.53910911490326
N            0.76494296409985        6.76545151640969       -0.62938797542549
N            1.85122194045313        5.40553313848199       -3.49688111547290
N            0.78426149793526        4.60218161917575       -1.72821257929738
N            1.22569365258300        6.93105201315470        1.74943707528874
N            2.67854041246037        6.31006268899565        3.30464409480984
N            0.72604850502647        8.93828213365626        3.01604526347086
N            2.16577139475326        8.30267026584659        4.57714175965615
N            4.84306020674226        5.24693978455887        3.62465139495897
N            7.00388847675270        5.65521005392451        3.37132092294106
N            5.11058846481865        2.92829130878633        3.04683756900349
N            7.31167184408596        3.28675197437786        3.01208048214650
C            0.82174239129891        7.89427610403113       -1.39675217831224
C            1.01389128521843        4.41955270917598       -3.05958113033402
C            2.19355253567696        6.32287136628421       -2.44953495712695
H            3.27476074790132        6.47576070713503       -2.39714889680236
C            1.55317580610382        5.69495401669192       -1.18606185261346
H            2.26780726612821        5.32480026471737       -0.44084764064338
C            1.85519911501887        5.86369341913183        2.31788830468504
C            1.04416448517652        9.04382663908667        4.33798010065295
C            1.70437172433620        8.19256920552260        2.27560525706614
H            2.12522113174236        8.80505829282204        1.46555901716978
C            2.71830514564040        7.75813561080296        3.36905795322233
H            3.74409966365485        8.11691227568905        3.21602293756065
C            5.85903779395654        6.08585750082642        3.97308485088292
C            6.34535298842606        2.35641727450272        3.25081183621689
C            5.24235000623208        4.29083338906024        2.60826619853682
H            4.68860745181438        4.46176692876899        1.67804071872114
C            6.77168103732563        4.52040387998809        2.50888838702086
H            7.14639036638162        4.73083512966166        1.49762265752250
C            2.42872213328247        5.37497095983590       -4.82049143224445
H            2.60025561921840        6.39914836793389       -5.15952881905086
H            1.68550282839202        4.90012382425229       -5.46684967196312
C            3.74001295406418        4.64184576388636       -4.95915494650277
C            4.59299278556804        4.37604096569292       -3.89625510435049
H            4.31740199610310        4.64226326666190       -2.88563497932801
C            5.81598248411305        3.76126047823355       -4.10926700901651
H            6.47601813606113        3.58807709560270       -3.27065120309283
C            6.19981094709314        3.39307631132355       -5.39345010951862
C            7.51975816360751        2.76920907161005       -5.67181210381457
C            5.35006653770665        3.66480866256542       -6.46346678867814
H            5.66309241429157        3.38284279327384       -7.45634272305962
C            4.13478691922705        4.27560515421155       -6.24437834035104
H            3.47942143926065        4.47931604745013       -7.07553589395015
C           -0.20517934038286        3.84680798266130       -0.99585417548743
H            0.20895882126006        3.56046386661292       -0.02570144128141
H           -0.39315593010020        2.94437594894412       -1.58757451353668
C           -1.49793341064880        4.60286894755436       -0.81222537611481
C           -2.27845448938686        4.38983721005100        0.32067898251681
H           -1.97085693897561        3.66046929797910        1.05382854883241
C           -3.43939685271694        5.10999476152445        0.51603196258915
H           -4.05122117771620        4.95041807325690        1.39108519284383
C           -3.83417722520621        6.07580804697098       -0.41058555094325
C           -5.05508835096154        6.85969576703258       -0.10674892365488
C           -3.07478439750565        6.26106002329584       -1.56527431666857
H           -3.37875148432264        6.95069808564407       -2.33776117303714
C           -1.92459264748621        5.52262893551367       -1.76269451697376
H           -1.34920667178060        5.66448865360861       -2.66470911761351
C           -0.44767618966863        9.57552355839213        2.46541624167592
H           -0.26763467624703        9.77612076689879        1.40479847579143
H           -0.56078329141624       10.54107142039430        2.97264419651914
C           -1.71419601468978        8.77990928962723        2.67348997077375
C           -1.71047921458978        7.53166532929850        3.28332943491148
H           -0.78019942723065        7.08329049214961        3.59682643281378
C           -2.89416683485954        6.85487312625333        3.49981254916588
H           -2.89881965845530        5.88573605193240        3.97442055281548
C           -4.11229137412286        7.41866638896848        3.12992812007339
C           -5.34517271688614        6.63965411861622        3.42412276072051
C           -4.11909849263147        8.66157276237082        2.49912082820755
H           -5.04177427030109        9.09963952265382        2.14882995098649
C           -2.92957337824712        9.32679470650713        2.27125014802752
H           -2.93633290639358       10.28965876174835        1.78506621445306
C            2.86931820378301        8.34444809909287        5.84438860205976
H            2.60158202960910        9.29280013203256        6.32200664020689
H            3.94197807987093        8.31942160404024        5.64230365326066
C            2.48283459552277        7.22080799119122        6.77299882040678
C            1.14522685768388        6.89583288638940        6.96917469465387
H            0.38341906546025        7.45318460587739        6.44626218476327
C            0.78684004259447        5.88311040897948        7.83861386533901
H           -0.25796264645935        5.63420131560748        7.94580971622780
C            1.77109236589397        5.17423347388609        8.52641991554336
C            1.45429803991521        4.06197597267366        9.45829490152375
C            3.11294957206922        5.49054917752602        8.32030894953282
H            3.86359043684510        4.92642523236919        8.85169070220582
C            3.46455727824739        6.50996261171642        7.45761283514461
H            4.50478336445405        6.75482588586221        7.30367606098607
C            3.98846750768587        2.09741098613617        2.62697563894213
H            3.05885395903094        2.62482672629703        2.83946767200508
H            4.04983658621121        1.18418356596554        3.22247446309509
C            4.08023597524578        1.77713203327730        1.15520931244352
C            3.21272147298233        2.37039686091948        0.24490988640045
H            2.44567330714038        3.03503668291102        0.61118143335041
C            3.33294729789735        2.12325901550597       -1.11144269667882
H            2.66057652949337        2.60655196581768       -1.80583203538491
C            4.35701615446864        1.29918372814876       -1.57379982477759
C            4.61788099191360        1.10604281030627       -3.01876416109837
C            5.22866471130514        0.70271298358721       -0.66259147205090
H            6.01136520591095        0.06072006793987       -1.03524117977643
C            5.07691387255629        0.92310464183246        0.69045602026951
H            5.73825732754523        0.44398110249209        1.39547903748684
C            8.71613199068873        2.94029606583782        2.94520192183220
H            9.15554652426545        3.44637942028951        2.08141504633699
H            8.76204290051300        1.85539924772922        2.79611202277700
C            9.47871179029254        3.28451259093268        4.19838708132972
C           10.77096320671373        3.79272755879998        4.10951512736686
H           11.20413188323684        3.97328258303239        3.13726843758670
C           11.49864553236749        4.07140849579706        5.25140058153424
H           12.48849711630956        4.48999171662908        5.14998552341695
C           10.93044536906138        3.86014160869490        6.50672295120534
C           11.65099762064133        4.15615248615100        7.77112404259886
C            9.62535882374355        3.37743559701779        6.59518162361666
H            9.19555372368194        3.22853354277894        7.57357604960988
C            8.91195962757252        3.07970167040602        5.45175128198095
H            7.91317737246931        2.67836326948149        5.52448030289785
C            1.87599740240158        8.64533472911713       -3.47797522235329
H            1.11678838080710        9.42440591193925       -3.37751441600135
H            1.86408819559178        8.23329442241111       -4.48922272953137
C            0.24018173662719        6.76901413138188        0.71021203284476
H           -0.47704177447887        7.58824051366083        0.75821124118308
H           -0.25919621983160        5.81711686500787        0.90190758707808
C            3.49590362065813        5.42378775762899        4.09732201004741
H            3.55964307530792        5.82309023799798        5.11140865362555
H            2.99986392721833        4.45173435403283        4.10161624662190
O            9.67789774833285        5.61485787586089        1.08559936513252
O            9.49109505490368       11.41542679436853        3.11568451712077
O            8.55766138678552        9.92861785156697       -2.14635480705157
O            9.74670191297054        5.25789994403490       -5.60378042657953
O            4.29161098794420        7.99822004484075       -4.87342409743283
O            3.67241000095418       13.66098129292141       -3.21971457584600
N            8.59432243698946        7.18923407283815        2.37513267115134
N            9.31395535914618        7.76419029422120        0.35816579911553
N            8.23647856258787        9.48145611910510        3.09537476561658
N            9.47764200517151        9.99209392328458        1.32310534226040
N            8.84945827621944        7.65246908195948       -2.01860600952993
N            7.46304380555136        8.47293097558721       -3.54179387159819
N            9.29575378904881        5.72141646560444       -3.39758967779378
N            8.00028541044431        6.61055913045017       -4.97812186997196
N            5.33096263781632        9.63080487921766       -3.63735286678253
N            3.18202576432404        9.22239001081281       -3.27820665931562
N            5.11659864941666       11.90229405360745       -2.86815188108827
N            2.91875524340777       11.55374398225594       -2.71811470901677
C            9.22539631198261        6.73172943359968        1.24658139166004
C            9.11612735735043       10.38950759216472        2.56621366221285
C            7.93003028148981        8.45836638805161        2.13043049025750
H            6.84850987999291        8.30784163319816        2.05585246908740
C            8.62542660158689        8.93066397567292        0.83499642595451
H            7.95518248999478        9.31743440991828        0.05732795356054
C            8.30907682923802        8.79644880819111       -2.52664362931404
C            9.07884619689196        5.80235043362626       -4.74908081181331
C            8.31661286332027        6.46312359574972       -2.65697121235812
H            7.81457384295042        5.83046436345779       -1.91305123948409
C            7.38368644368812        7.04248458152679       -3.75413436644402
H            6.33994828020431        6.70883530399325       -3.70903418496310
C            4.27288734875678        8.85685373643751       -4.00952513668711
C            3.88062357729711       12.49114376655863       -2.95690315799437
C            5.00751830838280       10.51047634650894       -2.52688670538354
H            5.62174724809817       10.26968805009276       -1.65236875444273
C            3.48146621793168       10.28425072650905       -2.34375540703409
H            3.16712842580210        9.99980244111144       -1.32907811339428
C            7.32022259455820        9.86299070545545        4.14953323365580
H            7.09003161386973        8.98443958381710        4.75858337142605
H            7.84420699041184       10.59842810280059        4.76708298657920
C            6.01890613197914       10.44333052620737        3.65305302520885
C            5.78706438978202       10.68654244775238        2.30573990764325
H            6.56707937695377       10.55610724551255        1.57382791867817
C            4.54372774785474       11.09205680115415        1.86979486810203
H            4.35460111460486       11.23214248011141        0.81599766524718
C            3.51937927208814       11.33341089016473        2.77866496891571
C            2.19263552865871       11.68086658137138        2.22136238369828
C            3.76922763443711       11.17187361654993        4.14150351456006
H            2.99151117986095       11.35145936987949        4.86814520978877
C            5.00088769610105       10.71350527874019        4.56524057475607
H            5.18571716371649       10.56135678660317        5.61625142729852
C           10.56371116994674       10.58617164771383        0.58311394477063
H           10.26122442988351       10.67942347320904       -0.46357500242017
H           10.71565401475015       11.58926565629347        0.99595822906189
C           11.86143164142276        9.82025729424860        0.71026896577463
C           12.94724226522344       10.19258163374552       -0.07824607398659
H           12.83265885581899       10.99303096736301       -0.79254606287547
C           14.16918845014383        9.56444391749571        0.06063814522796
H           15.01606984594993        9.85735938468031       -0.53829257235040
C           14.31342407129831        8.52663380685303        0.97684290905190
C           15.61111578844294        7.84041645618337        1.17308172839431
C           13.22271677146654        8.13017705369726        1.74355522956088
H           13.34665345131155        7.32185042128471        2.44765320663872
C           12.01302428236005        8.78518059685655        1.62436597070836
H           11.18921487973445        8.49098298582093        2.25590414957312
C           10.12504697464735        4.67216508307982       -2.81925174146729
H            9.69399319122958        4.39481032961058       -1.85489937316983
H           10.07712776167369        3.81352517879744       -3.49941867807016
C           11.56767958422282        5.08480599318074       -2.65718989683786
C           12.32227358190295        5.37369414353618       -3.78936123515247
H           11.85906579275021        5.29315720345022       -4.76051548556275
C           13.64732640989958        5.74386732845190       -3.67339248484041
H           14.20814531405075        5.98523332568274       -4.56321887689313
C           14.23246319564625        5.84926992565582       -2.41252730147055
C           15.64304171350280        6.28377790061231       -2.25426791418042
C           13.47742625425612        5.57495818285421       -1.27582846815893
H           13.94109203598521        5.66351646230754       -0.30478555651940
C           12.15884666966667        5.17563748719355       -1.40050647310843
H           11.59006725280653        4.93272159275029       -0.51417413788215
C            7.29359270228591        6.58517380697472       -6.24677295747336
H            7.60913066286752        5.67089495592965       -6.76366119610519
H            6.22109011614039        6.53406510034760       -6.04087719913678
C            7.60868379389082        7.77178124123746       -7.11727092526364
C            8.93011054189532        8.06913958577065       -7.43157742862985
H            9.71354369043867        7.44227306767645       -7.03478489896148
C            9.23357571830366        9.13612309336453       -8.25493558208401
H           10.26891395980997        9.36133387940090       -8.46024719250552
C            8.20964360288542        9.92984881488578       -8.77166148522006
C            8.47319852018153       11.09633328211254       -9.65281569053808
C            6.88683710151140        9.64597690105833       -8.43854933123705
H            6.10712687744218       10.27730470263884       -8.83551340971415
C            6.58861066843382        8.56956041490236       -7.62499881594263
H            5.56195628204612        8.34285032270526       -7.37761510958209
C            6.29570136419662       12.70131157676118       -2.57211448828383
H            7.18140560964563       12.16239506459469       -2.90781970356423
H            6.18169110513375       13.62403717502353       -3.14796230169640
C            6.42818715187838       13.03319262753590       -1.10420985767759
C            7.59139192750550       12.71843240745048       -0.41102522318609
H            8.40024966328132       12.23505080100131       -0.93677876090199
C            7.71350780039200       12.99890098710963        0.93914529574953
H            8.63723309501705       12.76468334812384        1.44291080597089
C            6.64963692872068       13.57093719514215        1.63279851821960
C            6.61631850888793       13.77027361705871        3.10631066651722
C            5.50243621165524       13.93285206303617        0.92409641514132
H            4.69673806599020       14.40841518374556        1.46221402245939
C            5.39692417839827       13.67829771088439       -0.42668665738587
H            4.50730828594257       13.97600175520443       -0.95934283813824
C            1.54584145966146       11.93563873736009       -2.44192837361319
H            1.18201651549739       11.33826556195459       -1.60142068468619
H            1.56795350722934       12.99001941955368       -2.14239239479459
C            0.64133543737902       11.79937391831795       -3.63942317165109
C           -0.60931376658917       11.20125119399172       -3.51240037974213
H           -0.90979423537732       10.80678387124717       -2.55345135134070
C           -1.44704267524558       11.10735830853314       -4.60595778982354
C           -1.04314920337742       11.60613052304727       -5.84315077791452
C            0.20888606569681       12.20480213086156       -5.97300414014790
C            1.03995118255415       12.30119511982360       -4.87460964964864
H            2.00154712075197       12.78282070634356       -4.96180041266938
C            8.26860579384237        6.33568296179627        3.48840514064554
H            9.06876318042962        5.59659998529401        3.56888092696186
H            8.21912351584637        6.94537609796590        4.39306755260838
C            9.84692892219671        7.65652302525521       -0.97634823537699
H           10.41267855455693        6.72681664019689       -1.01900624393041
H           10.51130670326618        8.50485004991517       -1.15989662158857
C            6.64194062705875        9.45092840539097       -4.21094637877144
H            6.49932981056467        9.13275670045769       -5.24606708075366
H            7.17454752848922       10.40205062127534       -4.17216376738819
O           16.65567591138202        8.58886992349192        0.87182054016260
H           -2.42289836932779       10.65426427014186       -4.53005740942272
H            0.51704924361008       12.59602482692113       -6.92908919854039
C           -1.96596871127574       11.49077862403475       -6.99116096117469
O           -1.50137253093059       12.02109462811119       -8.11307273480771
O           -3.05988042470228       10.95933125343859       -6.93120613429953
H           -2.13487094620086       11.93161502335120       -8.85124972721565
O           15.70959118878355        6.71543471626247        1.62823581120301
H           17.49730223677971        8.10700867106317        0.98005201754023
O            5.67048928637651       14.31644397493608        3.64503486576161
O            7.59902376380800       13.31144683740898        3.86643384499834
H            8.33562466521300       12.82210683664102        3.43339499687333
O            1.87176606792002       11.33691679681336        1.09840321723067
O            1.33852826660701       12.35662691181763        2.97614708606791
H            1.70901527036631       12.68010552813898        3.81739535997651
O           -5.86383451508577        6.51604595920243        0.73097969630861
O           -5.31851907878093        5.43535030298233        3.57572746678733
O            7.72451186286008       12.04906523530123       -9.71472682374377
O           16.01276197638929        6.99354031890592       -1.34379643245601
O            5.75207953580800        0.95957511439040       -3.43822802243425
O            8.14471497730878        3.02035421408218       -6.68010332892268
O           11.07220493069427        4.42831568788889        8.80222206362387
O            2.24053078600529        3.16860781249293        9.69541764807304
O           16.51611435400859        5.87068848812725       -3.16973294983520
H           16.14031089563152        5.25409483305568       -3.82461493754870
O            0.26157474381917        4.06680253464319       10.04923457708567
H           -0.27318824035929        4.85787493652419        9.85506495356781
O           12.98126452610824        4.10798714500314        7.75219254618680
H           13.35454730014438        3.80918967576400        6.90302507999772
O           -6.48167327714770        7.30544319016675        3.58383056580177
H           -6.39365351212941        8.26824989023147        3.46594181233718
O           -5.24696411728360        8.00610197016726       -0.75654397664727
H           -4.56076592188351        8.21386104244903       -1.41430340819151
O            9.57498656376342       11.07065703263913      -10.39936730415594
H           10.06978370686718       10.23277092998899      -10.34412034374135
O            3.60094260689591        1.11791310421907       -3.86533697540879
H            2.72277264809746        1.14321145567554       -3.44610598885824
O            8.01076426080955        1.93629441407532       -4.75825345094086
H            7.32186468391015        1.57969341189272       -4.15501572151299
P            5.09420874203095        7.20977323825981       -0.14411630438483
F            4.58975045542021        5.68328513833246       -0.34151891822599
F            3.57248130489044        7.74136436280652       -0.25236534850246
F            5.27480652702419        7.35206005669908       -1.73954795099367
F            5.60956905693817        8.72757211358999        0.03564781080069
F            4.92049198306341        7.07098281164774        1.45246487893594
F            6.61506050702518        6.67086803531601       -0.01772085678753
