217

C            1.70792857537411        0.98988031977325       -3.16318524530939
H            1.60607780873428        0.12587636552052       -2.49218215695756
N            2.95640474985529        0.96943744167001       -3.86560153739796
C            3.68134323494630        2.11227543992200       -3.65997695670705
O            4.78443252754134        2.35653812250454       -4.11053896793737
N            2.96058676974173        2.93940974380998       -2.84966335944204
C            1.71548433164429        2.36237097834134       -2.44424046318939
H            1.64038084431699        2.30701886771074       -1.34801610285192
N            0.55240310439105        3.03461647518818       -2.98421727595746
C           -0.14953438494831        2.23722217226899       -3.83657165078318
O           -1.21099062001979        2.52458922079688       -4.36246219721813
N            0.54090112835901        1.07744717889617       -4.02434451656169
C            3.43456602670169        4.23663428029828       -2.43056422448544
H            3.12299337228314        5.01105071184283       -3.13577803054720
H            3.04777600467536        4.46448202449470       -1.43893650503534
H            4.52270521813510        4.20108127335043       -2.40207247795380
C            3.53778392893617       -0.21623289540775       -4.50008367626416
H            2.79422685313557       -1.01432056074672       -4.39958979941453
C            3.77204299863892        0.06197911227584       -5.98217517002448
H            4.13932261663525       -0.83518774759133       -6.47144702751633
H            2.83622143635549        0.35955488709624       -6.44994835307931
H            4.48809440139533        0.87097427713681       -6.09802826937946
C            4.77354044392013       -0.64297079646228       -3.73019285647208
C            4.62350652942642       -0.98445319924628       -2.38871823361203
H            3.64420587940579       -0.92937502625802       -1.93106980967013
C            5.70219910523662       -1.39310126505392       -1.62647099279912
H            5.55985496944684       -1.66052996377296       -0.58929062268599
C            6.96142927835975       -1.46193655090174       -2.19857396177005
H            7.80352256944696       -1.78120886127703       -1.60344057850778
C            7.12452606416463       -1.11920289238667       -3.52878091723927
H            8.10406409168681       -1.16500958530163       -3.98126795365849
C            6.04022155993924       -0.71465970783920       -4.29077950585927
H            6.19294702562139       -0.44840734491590       -5.32285947364717
C            0.00392469971833        4.25847483069576       -2.46001260097895
H            0.78781908633732        5.01491652445872       -2.38064300054696
H           -0.77771506207664        4.56929852999961       -3.15672681402223
C           -1.70606881727569        3.23813234494701        0.72060970961819
H           -1.60453714015081        2.22503297102236        1.13348598348493
N           -2.95516936345642        3.83594063724578        1.08786917450943
C           -3.67776930583053        4.23160586508129       -0.00522119387008
O           -4.78005952812612        4.74567549504025        0.00725899506475
N           -2.95589046216463        3.94293527133718       -1.12590844496311
C           -1.71182567752697        3.30186413980263       -0.82751829477565
H           -1.63734498164086        2.32466708473991       -1.32749881978609
N           -0.54757605692902        4.10415695177653       -1.13870871464037
C            0.15349199029661        4.44276160866882       -0.02118086611947
O            1.21584602356891        5.04026903475019       -0.00597074966518
N           -0.53917734152147        4.02748097554105        1.07656319639599
C           -3.42532903942793        4.23343480240586       -2.45938702103440
H           -3.04371684814472        3.48587835004934       -3.15256330717695
H           -4.51378015460831        4.20013504558036       -2.44426640105926
H           -3.10505609321284        5.22900563581349       -2.77634551308051
C           -3.53552910705262        3.79921295009971        2.43245034386187
H           -2.79124268242618        3.31642857221809        3.07503281394259
C           -3.76932903146036        5.22451617860374        2.92527218032826
H           -2.83413766334668        5.77904781787814        2.89380899747658
H           -4.13182314702500        5.20571078419298        3.94870673969137
H           -4.48854353690178        5.72492438057126        2.28264412813175
C           -4.77091696581994        2.91834040611419        2.42404083078547
C           -4.62169618035332        1.58533242189354        2.05061644583235
H           -3.64405233861492        1.21778206842759        1.76692992796238
C           -5.69904070019432        0.71887518528021        2.03426559994355
H           -5.55698468859225       -0.31358502349217        1.74887491598816
C           -6.95629672184528        1.17845354066048        2.38894799004550
H           -7.79713558750707        0.50164663663151        2.37732502635468
C           -7.11889222570720        2.50272198300005        2.75425766177536
H           -8.09690513142183        2.87079068860106        3.02686893325112
C           -6.03586543855931        3.36681912046131        2.77447620419328
H           -6.18818528663204        4.39411716262323        3.05886644982736
C            0.00282997369243        4.16762709396926        2.40360010317238
H           -0.78035622440503        4.48586137203650        3.09668188428480
H            0.78827755238502        4.92466912900168        2.33261075476599
C            1.70853330530063        2.24211123509335        2.43650203465860
H            1.60625671952304        2.09264017033744        1.35281545271859
N            2.95809951268818        2.85858574296208        2.76948148737721
C            3.68113253914965        2.10965990022394        3.65828798907889
O            4.78396155878946        2.37730482738649        4.09604990968969
N            2.95916688989713        0.99518208846729        3.96945010599311
C            1.71433477558684        0.93366561723054        3.26636944628294
H            1.63849204947500        0.01185688119876        2.67062149857912
N            0.55110551756995        1.06662193544724        4.11802714539255
C           -0.14961567329762        2.20405887069786        3.85275417819289
O           -1.21105155427842        2.51708024666830        4.36381935488035
N            0.54215046138207        2.94569365402080        2.94251236255170
C            3.42981386929708       -0.01427485624841        4.88733410389463
H            3.11370293894829        0.21102134948992        5.90882857899761
H            3.04527516803431       -0.98791128193739        4.58903043211823
H            4.51810031296659       -0.02016749683852        4.84704059657355
C            3.53848885485904        4.00412201560196        2.06481651256003
H            2.79492183270615        4.31830702010310        1.32425772411285
C            3.77051316183323        5.14480803315798        3.05180018935503
H            2.83507234092801        5.39325813146238        3.54810599273206
H            4.13065005453201        6.02223789629154        2.52303157624722
H            4.49082073554323        4.84044478453293        3.80626195085275
C            4.77498905455079        3.55673590739602        1.30782665267485
C            4.63028156776548        2.55746164988941        0.34901353034739
H            3.65516079031169        2.11996646094774        0.17800158464982
C            5.70901854419184        2.11105058477782       -0.39173528061085
H            5.57083825693641        1.33994706271135       -1.13593762117280
C            6.96285047059223        2.65907816909957       -0.17917369324144
H            7.80470363540126        2.31201204653362       -0.75882441226364
C            7.12092699145857        3.64740927197373        0.77564889026535
H            8.09636376244892        4.07630539195404        0.95130607155161
C            6.03659902932999        4.09554330232613        1.51279845884333
H            6.18549379306378        4.86324896091117        2.25297851102336
C            0.00062289450863        0.00052146491604        4.91429894545888
H            0.78315221795759       -0.44730998808602        5.53081327280977
H           -0.78176143343349        0.44848822818429        5.53089908024761
C           -1.70788023387723       -2.24162167208573        2.43741016937646
H           -1.60585226605543       -2.09239330770221        1.35366624858909
N           -2.95737373136128       -2.85801253096078        2.77081424812844
C           -3.68019212264206       -2.10889170172182        3.65963027278271
O           -4.78292056072298       -2.37643423141845        4.09770814945986
N           -2.95814370905787       -0.99435371543904        3.97038524264215
C           -1.71348295530896       -0.93299085477114        3.26698723400373
H           -1.63778856437423       -0.01131496755019        2.67101458113001
N           -0.55004601695510       -1.06575418384523        4.11839039069769
C            0.15060541996875       -2.20325647506850        3.85321264540670
O            1.21216343576153       -2.51616540089517        4.36409271226854
N           -0.54138363791826       -2.94509758270852        2.94330723975723
C           -3.42857565444694        0.01531232698110        4.88814937901260
H           -3.04410549346701        0.98888179069347        4.58953452792290
H           -4.51687282538814        0.02119720290170        4.84810801661356
H           -3.11222587350953       -0.20975305528523        5.90962163447681
C           -3.53793019317426       -4.00371136548894        2.06655476568913
H           -2.79454555275592       -4.31806174247181        1.32588259842978
C           -3.76970132976623       -5.14417347210689        3.05385721521140
H           -2.83414414875943       -5.39247220551476        3.55001959533185
H           -4.12991874406679       -6.02174174527235        2.52537305179887
H           -4.48985766662195       -4.83965736988687        3.80840247264610
C           -4.77462492791944       -3.55650219034358        1.30977774448701
C           -4.63020261219223       -2.55732127620106        0.35082408343085
H           -3.65515265483328       -2.11977078266020        0.17954812555847
C           -5.70913593038471       -2.11106948892114       -0.38973437884545
H           -5.57117844303671       -1.34002542928722       -1.13403914677289
C           -6.96288057973534       -2.65916756903994       -0.17684010244685
H           -7.80488784644632       -2.31222169176617       -0.75633899527386
C           -7.12067042780495       -3.64741981814177        0.77811166548496
H           -8.09603396514850       -4.07637994508932        0.95401950201388
C           -6.03614664730342       -4.09539419053519        1.51506997517064
H           -6.18481853532893       -4.86304692294975        2.25534893915278
C           -0.00217862863051       -4.16713845985009        2.40452202176914
H           -0.78762825303474       -4.92421324899727        2.33390136872728
H            0.78119371042925       -4.48520343235753        3.09747115895857
C            1.70625336694459       -3.23796365503643        0.72087902685037
H            1.60480362752175       -2.22477965267737        1.13356802721011
N            2.95546950451308       -3.83565829004696        1.08793039610906
C            3.67778875839869       -4.23153081927605       -0.00527151339734
O            4.78009941262079       -4.74556114190572        0.00702185058959
N            2.95559547651094       -3.94312945466960       -1.12582429108631
C            1.71159576414003       -3.30202290558939       -0.82723714233349
H            1.63696136436007       -2.32493320241548       -1.32740469228458
N            0.54728115790381       -4.10440739552147       -1.13794551718642
C           -0.15347480248727       -4.44279817415418       -0.02015773707015
O           -1.21580844257694       -5.04033083518467       -0.00453720665608
N            0.53948036714119       -4.02727117497688        1.07731334481692
C            3.42468561463420       -4.23389611952431       -2.45936716399035
H            3.10434247084762       -5.22953347741203       -2.77603760327025
H            3.04288148111441       -3.48648976827112       -3.15259521109321
H            4.51313709545291       -4.20058047609351       -2.44454173019604
C            3.53618869781836       -3.79862107616095        2.43234810399771
H            2.79205967503774       -3.31571839340490        3.07502448546905
C            3.77015969388233       -5.22381014248111        2.92541989997878
H            2.83497308234559       -5.77837050373553        2.89433537154318
H            4.13293485481264       -5.20477235722011        3.94875074833859
H            4.48920912613892       -5.72434155769480        2.28270304843665
C            4.77155086996330       -2.91771717461874        2.42341936210252
C            4.62219885164043       -1.58479189178873        2.04975130073201
H            3.64447178560126       -1.21732341355602        1.76624430910550
C            5.69951963919285       -0.71831348104131        2.03292697148918
H            5.55736525782870        0.31408212480474        1.74735121953140
C            6.95688048206139       -1.17778517718159        2.38737577595173
H            7.79770029604792       -0.50096143687162        2.37538256932598
C            7.11960267406030       -2.50196982061079        2.75293244575350
H            8.09769589714428       -2.86995702283072        3.02536549955792
C            6.03660241969242       -3.36608831315147        2.77362216137730
H            6.18902191930100       -4.39332154219469        3.05819339226472
C           -0.00457463513557       -4.25901748210218       -2.45906751983023
H            0.77687518595913       -4.56999936803000       -3.15592468065813
H           -0.78845139190597       -5.01543763877405       -2.37931769472122
C           -1.70877336750700       -0.99058671622354       -3.16253076730959
H           -1.60675975662109       -0.12642795338755       -2.49175215316475
N           -2.95742749063590       -0.97031714133373       -3.86463664563393
C           -3.68230896320418       -2.11310845219362       -3.65855456232591
O           -4.78551517600264       -2.35748087398056       -4.10877086239952
N           -2.96133693083026       -2.94005275360338       -2.84823859855867
C           -1.71613486513928       -2.36291191735922       -2.44326823244824
H           -1.64074989938148       -2.30730839716836       -1.34707594637580
N           -0.55318899775858       -3.03527296376941       -2.98339331605396
C            0.14852016387014       -2.23807216031595       -3.83611533363003
O            1.20983757919774       -2.52555615180005       -4.36222222420345
N           -0.54196619089324       -1.07834039841311       -4.02396806137256
C           -3.43521858956351       -4.23716403122874       -2.42868113903561
H           -3.04818759510287       -4.46475159478184       -1.43708812951374
H           -4.52335034161884       -4.20159786509874       -2.39993331503899
H           -3.12382216899080       -5.01177031265639       -3.13376365834204
C           -3.53897798446119        0.21520631270285       -4.49923799661700
H           -2.79539095227408        1.01331475428094       -4.39913542015954
C           -3.77364619443675       -0.06335060565661       -5.98119919217087
H           -2.83794862321802       -0.36101114913501       -6.44916636760752
H           -4.14108458082716        0.83369702955895       -6.47057076963753
H           -4.48970984741748       -0.87238969808721       -6.09666890372043
C           -4.77451713378608        0.64212813168281       -3.72910089547389
C           -4.62407334515348        0.98404280151834       -2.38778263370805
H           -3.64462026044429        0.92916777022231       -1.93043672306062
C           -5.70254263104580        1.39287595663096       -1.62531934771445
H           -5.55987937888825        1.66065128112902       -0.58827160161696
C           -6.96195964482909        1.46145945240205       -2.19704168924009
H           -7.80388056555969        1.78087453434734       -1.60174141967710
C           -7.12546439207539        1.11828514738085       -3.52708534373390
H           -8.10515050937406        1.16389216909805       -3.97927060519987
C           -6.04138222042178        0.71355944478300       -4.28930401613545
H           -6.19442357498409        0.44696330696510       -5.32124833905448
C           -0.00063385112570       -0.00053306628981       -4.81110570193466
H            0.78347572272247       -0.44163783845038       -5.43216743617414
H           -0.78490124613423        0.44043477216549       -5.43206539087629
Br          -0.00000881464379        0.00000575073484       -0.00262821322679
