259

Cl           6.05148170479314        7.98523829600941        6.23528062981193
O           12.38839704401788       11.81762846136867        8.62307436277102
O           10.91613459690139       11.45758686476263       10.28715144734831
O            7.53098199666112        4.78607581695472       14.54782191077080
O           11.24574099241222        5.01035465437088       12.84523095828735
O            7.30335019057230        2.51923599817179        9.93605961658917
O            5.30982275215517        1.57683633629287       10.34766638993932
N            7.17905149547745       12.36775014397285        5.14670461829034
N            7.12039439096841       13.44321604823989        4.34913578065737
N            6.18561574190501       13.28138632761752        3.50051169460565
N            3.86244727822337       10.51004713666357        3.43796716556790
N            1.07324852811510        8.23480045751576        3.02302729562604
N            0.77702433492113        7.31322463834871        3.85274317101072
N            1.71313346869970        7.26637996765483        4.81140809365632
N            3.51536834739771        5.46832366815336        8.90517074448226
N            3.36237386699374        4.82403605464729       10.06150640215900
N            4.45517583000760        4.90327079299427       10.72238016109365
N            6.40973238059728        4.76738566313069       12.54971660795921
N           10.73290118564540        6.71987869430729       11.42512252832532
N           10.90110363561513        8.16964951184284        9.13757925058068
N           11.27340348611793        8.83298246403209        8.10726141846424
N           10.27509261543755        8.84650753974554        7.22225068981927
N            8.38727215418070        9.95545698686058        2.93833220398796
N            8.36778546422036       10.61521370977063        1.77059379697421
N            7.34595073311479       10.24680421781776        1.09744005474713
N            5.24338231208126        7.52730767919355        2.20075972436395
N            3.33052887601080        4.52796311988376        2.79889736669513
N            3.51008804749682        3.78767521036716        3.82256653618905
N            4.37246708877303        4.39221572924209        4.65411059586450
C            8.14236637480867       12.25064141731175        6.15466101317910
C            7.83087399612636       11.63831129188755        7.37891558663589
C            8.83084810347705       11.50321183824129        8.34250841682655
C           10.11840988080944       11.96108070202357        8.09819558870343
C           10.41514651230718       12.59886355909349        6.90026389797296
C            9.43357918352279       12.75327775176983        5.92236985633971
C            6.54406526121461       11.14223789471500        7.66948075456324
C            5.47795683603679       10.66306906768671        7.97640185975939
C            4.23548744209494       10.05818240285601        8.25602232183398
C            4.07975320189774        9.27612932386401        9.40279676717314
C            2.87183886503454        8.65476006243437        9.65392970130988
C            1.81218989435346        8.80329596675613        8.77212636500560
C            1.96480048079509        9.57700988315678        7.63178665916899
C            3.16709937012078       10.20453528356344        7.36831435366904
C           11.15854268718954       11.72271833081951        9.13214558208552
C           13.49312256193771       11.58750475428245        9.49091863101262
C           14.07109525481062       12.91383105734020        9.98856891692876
C            9.77028295929242       13.34980860601823        4.69037289448238
C           10.12537470111574       13.82359296881840        3.63697654639421
C           10.49685128670280       14.35247269796731        2.38381413404246
C            9.92779605510420       13.82979669134429        1.21959716829622
C           10.29363919759550       14.34346677729547       -0.01011192473152
C           11.21856280666838       15.37373198644734       -0.09288009255585
C           11.78450358929624       15.89340699921220        1.06158676468757
C           11.43063746858700       15.38735407905301        2.29755950313558
C            6.22298431248703       11.48353298068520        4.78566753007880
C            5.58873249676881       12.08059881380873        3.71038923164159
C            4.47989883254230       11.56688155467897        2.92517679773397
C            4.09364532561392       12.15876158835347        1.72096928546576
C            3.01698331771736       11.61492514117990        1.04120884116036
C            2.37240371396186       10.50741070483891        1.56721971096180
C            2.83994767617702        9.98431569277557        2.77323123577340
C            2.22363046623021        8.83867595826404        3.41666873409107
C            2.65076512099435        8.20864527692438        4.57028014039541
C            1.59191108038831        6.43183152823199        5.92701990013881
C            2.64407674953772        6.32382504452691        6.82486327538128
C            2.47464320833931        5.56683357566087        7.97523241937427
C            1.27047306823731        4.91867870725413        8.22756614702332
C            0.24051774771747        5.01841724310075        7.30996219123959
C            0.39123909844279        5.76868420502333        6.15816104537074
H           -0.69223220462962        4.51140182831843        7.49587346171010
C            4.76256954811550        5.98167917175475        8.82819608535291
C            5.37562981725495        5.61107793216452       10.01370304694516
C            6.73163331237864        5.89024201238859       10.45006845484480
C            7.55026280917385        6.62424888793822        9.60331175398958
C            8.86906302335443        6.92774624166305        9.91420483605255
C            9.39944073377312        6.44350470620727       11.12554482548267
C            8.58063653699229        5.73409392671090       11.99698586961988
C            7.25240366701714        5.46226428315607       11.68795445468963
C           11.55472613009584        6.01850072390713       12.24468699986861
C           12.96831485864958        6.60774486760461       12.31281412010923
C            6.57617228694478        4.48116527066731       13.86984483236858
C            5.36073215008422        3.71761551922965       14.40637360048006
O            5.57354872118956        3.34911916073230       15.74333396912546
C            9.62852254265015        7.72041087169936        8.96255206040432
C            9.21988221863280        8.16199417295142        7.71516496101276
C           10.39044203330630        9.46532599645817        5.97249277173422
C            9.30712764357729        9.47281837350935        5.10639820128139
C            9.44749452065911       10.03801270707862        3.84638838030463
C           10.64736194666216       10.62665481749796        3.46496205618747
C           11.71059535187975       10.63319235313402        4.35046464516872
C           11.59632680466548       10.05017440858520        5.59954252510241
H           12.64224926985640       11.08824436579664        4.05700703012751
C            7.32157106483327        9.13191777887096        3.00319249124921
C            6.65859190428534        9.31529390909843        1.80406832384255
C            5.50006987186519        8.54339954042760        1.38629577197155
C            4.74394618059582        8.79035790511782        0.24148526488863
C            3.67754486511401        7.94511293336582       -0.02641945050324
C            3.39499992445840        6.89575508279514        0.83342862375850
C            4.21848014358408        6.72486272526556        1.94696432902817
C            4.07568315554701        5.65535234010904        2.92216000697818
C            4.75367614930069        5.57288743930827        4.12523477538426
C            4.80036943668077        3.83599548685049        5.86432036710536
C            3.91384906839586        3.05974444880724        6.63029146045863
C            4.33580122003852        2.55383926588265        7.86009620941719
C            5.62016681055084        2.80631890079391        8.32766104711523
C            6.50519380421931        3.54834263199110        7.55591600437731
C            6.11268327067569        4.05643220841190        6.31751347459889
C            2.60671805762650        2.80083740765919        6.17576414925083
C            1.47491069015436        2.56623847699837        5.82474233611564
C            0.16757859086028        2.33980652722796        5.35047472073277
C           -0.22698201817819        2.91443730127225        4.13936618812915
C           -1.50717075178450        2.70289352872563        3.66585178553010
C           -2.40001387653121        1.92389917875346        4.38748540592437
C           -2.01081892417403        1.35205423877313        5.58957584879656
C           -0.73285604255017        1.55565781100487        6.07441678308583
C            6.03017532133164        2.24136892340605        9.63796216677027
C            7.82554428905521        1.92863885361248       11.12305572989009
C            9.31905981336378        2.22665260955518       11.19207509152043
C            7.07748889989864        4.74050805578367        5.54902002519337
C            7.97089414532984        5.28658924753449        4.94586176101224
C            8.97124024856126        5.95141746293032        4.20714223139329
C            8.71221774270069        6.37539013519148        2.90136930671923
C            9.69781864944468        7.02337425242791        2.18160076931282
C           10.94096023855458        7.25789638229011        2.74881908801121
C           11.20059608353566        6.84150469060070        4.04560880300368
C           10.22517193022048        6.19016917722642        4.77482419953451
H            8.60583021483080       11.01972532468826        9.28158018258562
H           11.41032828298969       12.96549433711029        6.71323754788804
H            4.91685353035927        9.14838420275729       10.07527910037856
H            2.75654006873873        8.04619555785712       10.53978128185295
H            0.87241645393813        8.30848857825039        8.96712888579216
H            1.14253272686791        9.68701949861400        6.93905459449708
H            3.29938340263034       10.78891134098366        6.46813379232569
H           13.17448415676699       10.97082125254315       10.33509195188986
H           14.24445856217683       11.05663116797741        8.90494082910156
O           15.27240007244851       12.63807794887278       10.66967056189130
H           13.35125713146406       13.41301140771748       10.65518082811294
H           14.26068202249965       13.57311391896619        9.12757814838902
H            9.21074495203838       13.02460972896755        1.29462976793244
H            9.85358908254977       13.93731779690768       -0.90880604050255
H           11.49751289768256       15.77208034847894       -1.05705248042084
H           12.50467317389583       16.69568479735260        0.99631473787354
H           11.86320984134177       15.78781537437045        3.20239261884609
H            6.06553199423011       10.53804837446445        5.25605406128793
H            4.63582138832963       13.01561140084958        1.35689587522353
H            2.68480157415005       12.04868957427573        0.10934063467749
H            1.53002312044291       10.04246823544845        1.08182529222867
H            3.51896277818177        8.39044681406162        5.16305284755700
H            3.57253999877388        6.83399203755166        6.63501949244708
H            1.16892699985646        4.34749763647769        9.13530098332698
H           -0.40120502830756        5.86378302114682        5.43446600270168
H            5.12342261225932        6.54780214572263        7.99876567361395
H            7.14335844963698        6.97714511753467        8.67171795645021
H            8.97858472365494        5.39480613661909       12.93795513172671
C            4.46426325585295        2.68117986244463       16.30336240447753
H            8.29943517614814        8.02872288495793        7.19236873976428
H            8.36900687156261        9.03586129570188        5.40042206537537
H           10.72612235315371       11.05992169632053        2.48189801226628
H           12.41787796514603       10.03475394811252        6.29635108554253
H            7.07112921637141        8.49406498225991        3.82041358330986
H            4.99645290508829        9.61936584293225       -0.39972584178271
H            3.06600200249700        8.10488965974872       -0.90235865956253
H            2.57102762762987        6.22169211011661        0.66723795378833
H            5.39993137246266        6.27098963162491        4.60937481195733
H            3.65978389789355        1.97024234245453        8.46508205040618
H            7.50408060110617        3.74110509068845        7.91248768191462
H            0.48306138684150        3.51507605055993        3.59023535116294
H           -1.81078559826484        3.14858558652754        2.73016824556645
H           -3.39973329961359        1.76219362297180        4.01273204600130
H           -2.70684417232252        0.74578157755804        6.15026721757074
H           -0.41814209582994        1.11505396495900        7.00860330845348
H            7.30441877745542        2.32668991920107       11.99785602290972
H            7.66738482253649        0.84532090602624       11.09054252890938
O            9.89881315497515        1.33558053679843       12.11447628909598
H            9.49145159024034        3.26762409560035       11.49761352485258
H            9.75892425848579        2.08233157202444       10.19227674144574
H            7.73448504146431        6.20416865669849        2.47328058066534
H            9.49133300705343        7.35208879782127        1.17311167927576
H           11.70494262981675        7.76716575277033        2.18196230818713
H           12.16711970066258        7.02708253217205        4.48938696444673
H           10.41711113540005        5.86379981450385        5.78753876536088
H           11.13795183033480        7.43376993736187       10.81329392877213
H            5.50184484183153        4.55077698158205       12.12254821128135
C           11.27779865645804        1.58506899630789       12.30648815403977
H           11.43704412055901        2.61624092309987       12.64652670816189
H           11.82387826659738        1.44148765715296       11.36199444333035
C           11.80717271131677        0.59113965620688       13.33620036021543
H           11.43130916386727        0.85028079755045       14.33528604149631
O           13.21681234179958        0.62549661916905       13.30528772147505
H           11.44132980035173       -0.41470498286757       13.08024676255429
C           13.80974556449697       -0.25189474330058       14.23806541701781
H           13.53582904053807        0.02849663114536       15.26529894881361
C           15.32390190429256       -0.17454334762527       14.06555504322091
H           13.47578203589343       -1.28547256150814       14.06526521643508
H           15.66472646904778        0.84805107709332       14.28358705271842
H           15.57797970656325       -0.40256580279664       13.01958920464425
O           15.93024636056461       -1.10040556791112       14.93723972446650
C           17.33741345851353       -1.10779974631436       14.83055618066960
H           17.75655049970382       -0.12714188306131       15.08414125197226
H           17.65348906842384       -1.37606440916447       13.81552965153937
H           17.69346741210871       -1.85460074745078       15.53621829909797
O           13.39749724670035        6.58517756535635       13.65305474172192
H           12.98401686593983        7.63358917002281       11.91722083065795
C           14.74932365417504        6.95889205335568       13.80577030254388
H           13.62597317552963        5.97987824354422       11.68975030234096
H           15.40861707569514        6.25947881655351       13.27175868406973
C           15.08016582300485        6.94236426379444       15.29524383201029
H           14.92063297172518        7.96821583973648       13.40521735851369
H           14.93814223116414        5.92684542693754       15.69053066693347
H           14.38991990107808        7.61313234743429       15.82679457209738
O           16.41526058760543        7.36493561156267       15.46178870336647
C           16.82374120678151        7.37240930712916       16.81291554259764
H           16.77415160214951        6.36005369663144       17.23903785328340
H           16.17279669637165        8.02540987370850       17.41195260789505
C           18.25951533371737        7.88545635176116       16.87639343722957
H           18.90721542202018        7.23284978420838       16.27256700373906
O           18.67554273389663        7.89333540831951       18.22248258472798
H           18.30343510681170        8.89854217171131       16.45011114824601
C           19.99957554972878        8.35489380106236       18.38322903450812
H           20.70837000017316        7.71129313942835       17.84922578117081
H           20.20555462841251        8.32341848838792       19.45053975734690
H           20.10603778688530        9.38172990651676       18.01463244105960
H            5.18922919682815        2.82907287324156       13.77707372622723
H            4.47531530258588        4.36853851186233       14.31988855029445
H            3.56958075945809        3.32030379094092       16.26802926409788
C            4.78791127624800        2.34348381001736       17.75556686288727
H            4.24683669448971        1.75717805666690       15.74822311768136
H            5.03015510287867        3.26865233957562       18.29762484744904
H            5.66854934829325        1.68697412340945       17.79229130130011
O            3.66456581946474        1.70907520043145       18.32613723939618
C            3.85472277854373        1.37584082630691       19.68485112860688
H            4.07259031359890        2.27589825877082       20.27761285420333
H            4.69805015922725        0.67992781011366       19.79984744421858
C            2.57634981682132        0.72173423711575       20.20071601723259
H            1.73471445321363        1.41877365145438       20.07440186863836
O            2.75224185466327        0.39507371630753       21.55981324026509
H            2.36396841332071       -0.18029918084015       19.60813460448107
C            1.61532317174658       -0.22151296125885       22.12406538069039
H            0.74126830741417        0.43769862004134       22.06805583374518
H            1.86084541230184       -0.42061286426394       23.16452284911873
H            1.38270136886466       -1.16221969268282       21.61106476317689
C           15.93963001001513       13.80718105795269       11.09646406561714
H           15.30582883848389       14.38831917009837       11.78066294073450
H           16.18964833492249       14.44434938133726       10.23604083862419
C           17.22794963901994       13.39555836250577       11.80334622634695
H           16.98989693624065       12.85202540423702       12.72841772948052
O           17.97144370055444       14.56087210930606       12.08500792663568
H           17.79745814964753       12.72139730095328       11.14765057086616
C           19.19551848579159       14.28591020637426       12.73206377095165
H           19.02066842914317       13.81605187067281       13.71048408789956
C           19.94517179725277       15.60137574241840       12.92014187968599
H           19.80776120582046       13.60034571764287       12.12898074925931
H           19.34018284886846       16.28302042126431       13.53593605696748
H           20.09949314018563       16.07376466946563       11.93890091097549
O           21.18056934169356       15.33060020514702       13.54171987021607
C           21.96048597907691       16.49025817660076       13.73731721792669
H           21.43988862386438       17.21278214003222       14.37650357155223
H           22.19897093772583       16.97066517959186       12.78111506684911
H           22.87672739985912       16.16318766598655       14.22314780854207
